<tlLogics>
   <tlLogic id="3500006301" type="static" programID="program_3500006301" offset="0">
      <phase duration="20" state="sGGGGGsrrsrr"/>
      <phase duration="4" state="syyyyGsrrsrr"/>
      <phase duration="20" state="srrrrGsGGsrr"/>
      <phase duration="4" state="srrrrGsyysrr"/>
      <phase duration="20" state="srrrrGsrrsGG"/>
      <phase duration="4" state="srrrrGsrrsyy"/>
      <phase duration="20" state="srrrrGsrrsrr"/>
      <phase duration="4" state="srrrrGsrrsrr"/>
   </tlLogic>
   <tlLogic id="3500006600" type="static" programID="program_3500006600" offset="0">
      <phase duration="20" state="sGGGGGrrrrGsrrrrGsrrrG"/>
      <phase duration="4" state="syyyyGrrrrGsrrrrGsrrrG"/>
      <phase duration="20" state="srrrrGGGGGGsrrrrGsrrrG"/>
      <phase duration="4" state="srrrrGyyyyGsrrrrGsrrrG"/>
      <phase duration="20" state="srrrrGrrrrGsGGGGGsrrrG"/>
      <phase duration="4" state="srrrrGrrrrGsyyyyGsrrrG"/>
      <phase duration="20" state="srrrrGrrrrGsrrrrGsGGGG"/>
      <phase duration="4" state="srrrrGrrrrGsrrrrGsyyyG"/>
   </tlLogic>
   <tlLogic id="3500006650" type="static" programID="program_3500006650" offset="0">
      <phase duration="20" state="GGGGsrrsrrr"/>
      <phase duration="4" state="yyyysrrsrrr"/>
      <phase duration="20" state="rrrrsGGsrrr"/>
      <phase duration="4" state="rrrrsyysrrr"/>
      <phase duration="20" state="rrrrsrrsGGG"/>
      <phase duration="4" state="rrrrsrrsyyy"/>
   </tlLogic>
   <tlLogic id="3500006660" type="static" programID="program_3500006660" offset="0">
      <phase duration="20" state="GGGGsrsrrr"/>
      <phase duration="4" state="yyyysrsrrr"/>
      <phase duration="20" state="rrrrsGsrrr"/>
      <phase duration="4" state="rrrrsysrrr"/>
      <phase duration="20" state="rrrrsrsGGG"/>
      <phase duration="4" state="rrrrsrsyyy"/>
   </tlLogic>
   <tlLogic id="3500006700" type="static" programID="program_3500006700" offset="0">
      <phase duration="20" state="sGGGGssrrrsrrrsrrr"/>
      <phase duration="4" state="syyyyssrrrsrrrsrrr"/>
      <phase duration="20" state="srrrrssGGGsrrrsrrr"/>
      <phase duration="4" state="srrrrssyyysrrrsrrr"/>
      <phase duration="20" state="srrrrssrrrsGGGsrrr"/>
      <phase duration="4" state="srrrrssrrrsyyysrrr"/>
      <phase duration="20" state="srrrrssrrrsrrrsGGG"/>
      <phase duration="4" state="srrrrssrrrsrrrsyyy"/>
   </tlLogic>
   <tlLogic id="3500006901" type="static" programID="program_3500006901" offset="0">
      <phase duration="20" state="GGGGGsrsrrrG"/>
      <phase duration="4" state="yyyyGsrsrrrG"/>
      <phase duration="20" state="rrrrGsGsrrrG"/>
      <phase duration="4" state="rrrrGsysrrrG"/>
      <phase duration="20" state="rrrrGsrsGGGG"/>
      <phase duration="4" state="rrrrGsrsyyyG"/>
   </tlLogic>
   <tlLogic id="3500007100" type="static" programID="program_3500007100" offset="0">
      <phase duration="20" state="sGGGGGsrrrrsrrrrsrrrrG"/>
      <phase duration="4" state="syyyyGsrrrrsrrrrsrrrrG"/>
      <phase duration="20" state="srrrrGsGGGGsrrrrsrrrrG"/>
      <phase duration="4" state="srrrrGsyyyysrrrrsrrrrG"/>
      <phase duration="20" state="srrrrGsrrrrsGGGGsrrrrG"/>
      <phase duration="4" state="srrrrGsrrrrsyyyysrrrrG"/>
      <phase duration="20" state="srrrrGsrrrrsrrrrsGGGGG"/>
      <phase duration="4" state="srrrrGsrrrrsrrrrsyyyyG"/>
   </tlLogic>
   <tlLogic id="3500007300" type="static" programID="program_3500007300" offset="0">
      <phase duration="20" state="sGGGGGsrrrsrrrrGsrrr"/>
      <phase duration="4" state="syyyyGsrrrsrrrrGsrrr"/>
      <phase duration="20" state="srrrrGsGGGsrrrrGsrrr"/>
      <phase duration="4" state="srrrrGsyyysrrrrGsrrr"/>
      <phase duration="20" state="srrrrGsrrrsGGGGGsrrr"/>
      <phase duration="4" state="srrrrGsrrrsyyyyGsrrr"/>
      <phase duration="20" state="srrrrGsrrrsrrrrGsGGG"/>
      <phase duration="4" state="srrrrGsrrrsrrrrGsyyy"/>
   </tlLogic>
   <tlLogic id="3500007350" type="static" programID="program_3500007350" offset="0">
      <phase duration="20" state="GGGGGG"/>
      <phase duration="4" state="yyyyyy"/>
      <phase duration="10" state="rrrrrr"/>
   </tlLogic>
   <tlLogic id="3500007500" type="static" programID="program_3500007500" offset="0">
      <phase duration="20" state="sGGGsrrrrsrrrrrsrrrr"/>
      <phase duration="4" state="syyysrrrrsrrrrrsrrrr"/>
      <phase duration="20" state="srrrsGGGGsrrrrrsrrrr"/>
      <phase duration="4" state="srrrsyyyysrrrrrsrrrr"/>
      <phase duration="20" state="srrrsrrrrsGGGGGsrrrr"/>
      <phase duration="4" state="srrrsrrrrsyyyyysrrrr"/>
      <phase duration="20" state="srrrsrrrrsrrrrrsGGGG"/>
      <phase duration="4" state="srrrsrrrrsrrrrrsyyyy"/>
   </tlLogic>
   <tlLogic id="3500007900" type="static" programID="program_3500007900" offset="0">
      <phase duration="20" state="GGGGGsrsrrrGsrr"/>
      <phase duration="4" state="yyyyGsrsrrrGsrr"/>
      <phase duration="20" state="rrrrGsGsrrrGsrr"/>
      <phase duration="4" state="rrrrGsysrrrGsrr"/>
      <phase duration="20" state="rrrrGsrsGGGGsrr"/>
      <phase duration="4" state="rrrrGsrsyyyGsrr"/>
      <phase duration="20" state="rrrrGsrsrrrGsGG"/>
      <phase duration="4" state="rrrrGsrsrrrGsyy"/>
   </tlLogic>
   <tlLogic id="3500008000" type="static" programID="program_3500008000" offset="0">
      <phase duration="20" state="GGGGGsrsrrr"/>
      <phase duration="4" state="yyyyGsrsrrr"/>
      <phase duration="20" state="rrrrGsGsrrr"/>
      <phase duration="4" state="rrrrGsysrrr"/>
      <phase duration="20" state="rrrrGsrsGGG"/>
      <phase duration="4" state="rrrrGsrsyyy"/>
   </tlLogic>
   <tlLogic id="3500051802" type="static" programID="program_3500051802" offset="0">
      <phase duration="20" state="sGGGGsrrrsrrrrssrrrG"/>
      <phase duration="4" state="syyyGsrrrsrrrrssrrrG"/>
      <phase duration="20" state="srrrGsGGGsrrrrssrrrG"/>
      <phase duration="4" state="srrrGsyyysrrrrssrrrG"/>
      <phase duration="20" state="srrrGsrrrsGGGGssrrrG"/>
      <phase duration="4" state="srrrGsrrrsyyyyssrrrG"/>
      <phase duration="20" state="srrrGsrrrsrrrrssGGGG"/>
      <phase duration="4" state="srrrGsrrrsrrrrssyyyG"/>
   </tlLogic>
   <tlLogic id="3500051804" type="static" programID="program_3500051804" offset="0">
      <phase duration="20" state="ssGsrrrGrrrrrG"/>
      <phase duration="4" state="ssysrrrGrrrrrG"/>
      <phase duration="20" state="ssrsGGGGrrrrrG"/>
      <phase duration="4" state="ssrsyyyGrrrrrG"/>
      <phase duration="20" state="ssrsrrrGGGGGGG"/>
      <phase duration="4" state="ssrsrrrGyyyyyG"/>
   </tlLogic>
   <tlLogic id="3500058500" type="static" programID="program_3500058500" offset="0">
      <phase duration="20" state="sGGGssrrrsrr"/>
      <phase duration="4" state="syyyssrrrsrr"/>
      <phase duration="20" state="srrrssrrrsrr"/>
      <phase duration="4" state="srrrssrrrsrr"/>
      <phase duration="20" state="srrrssGGGsrr"/>
      <phase duration="4" state="srrrssyyysrr"/>
      <phase duration="20" state="srrrssrrrsGG"/>
      <phase duration="4" state="srrrssrrrsyy"/>
   </tlLogic>
   <tlLogic id="3500058550" type="static" programID="program_3500058550" offset="0">
      <phase duration="20" state="GGGG"/>
      <phase duration="4" state="yyyy"/>
      <phase duration="10" state="rrrr"/>
   </tlLogic>
   <tlLogic id="3500058700" type="static" programID="program_3500058700" offset="0">
      <phase duration="20" state="sGGsrrrsrrsrrr"/>
      <phase duration="4" state="syysrrrsrrsrrr"/>
      <phase duration="20" state="srrsGGGsrrsrrr"/>
      <phase duration="4" state="srrsyyysrrsrrr"/>
      <phase duration="20" state="srrsrrrsGGsrrr"/>
      <phase duration="4" state="srrsrrrsyysrrr"/>
      <phase duration="20" state="srrsrrrsrrsGGG"/>
      <phase duration="4" state="srrsrrrsrrsyyy"/>
   </tlLogic>
   <tlLogic id="3500058900" type="static" programID="program_3500058900" offset="0">
      <phase duration="20" state="sGGGsrrrsrrrGsrrr"/>
      <phase duration="4" state="syyysrrrsrrrGsrrr"/>
      <phase duration="20" state="srrrsGGGsrrrGsrrr"/>
      <phase duration="4" state="srrrsyyysrrrGsrrr"/>
      <phase duration="20" state="srrrsrrrsGGGGsrrr"/>
      <phase duration="4" state="srrrsrrrsyyyGsrrr"/>
      <phase duration="20" state="srrrsrrrsrrrGsGGG"/>
      <phase duration="4" state="srrrsrrrsrrrGsyyy"/>
   </tlLogic>
   <tlLogic id="3500059300" type="static" programID="program_3500059300" offset="0">
      <phase duration="20" state="sGsrsr"/>
      <phase duration="4" state="sysrsr"/>
      <phase duration="20" state="srsGsr"/>
      <phase duration="4" state="srsysr"/>
      <phase duration="20" state="srsrsG"/>
      <phase duration="4" state="srsrsy"/>
   </tlLogic>
   <tlLogic id="3500059350" type="static" programID="program_3500059350" offset="0">
      <phase duration="20" state="GGGG"/>
      <phase duration="4" state="yyyy"/>
      <phase duration="10" state="rrrr"/>
   </tlLogic>
   <tlLogic id="3500059800" type="static" programID="program_3500059800" offset="0">
      <phase duration="20" state="GGGssrr"/>
      <phase duration="4" state="yyyssrr"/>
      <phase duration="20" state="rrrssrr"/>
      <phase duration="4" state="rrrssrr"/>
      <phase duration="20" state="rrrssGG"/>
      <phase duration="4" state="rrrssyy"/>
   </tlLogic>
   <tlLogic id="3500059850" type="static" programID="program_3500059850" offset="0">
      <phase duration="20" state="GGGG"/>
      <phase duration="4" state="yyyy"/>
      <phase duration="10" state="rrrr"/>
   </tlLogic>
   <tlLogic id="3500060100" type="static" programID="program_3500060100" offset="0">
      <phase duration="20" state="sGGsrrrsrrsrrr"/>
      <phase duration="4" state="syysrrrsrrsrrr"/>
      <phase duration="20" state="srrsGGGsrrsrrr"/>
      <phase duration="4" state="srrsyyysrrsrrr"/>
      <phase duration="20" state="srrsrrrsGGsrrr"/>
      <phase duration="4" state="srrsrrrsyysrrr"/>
      <phase duration="20" state="srrsrrrsrrsGGG"/>
      <phase duration="4" state="srrsrrrsrrsyyy"/>
   </tlLogic>
   <tlLogic id="3500060600" type="static" programID="program_3500060600" offset="0">
      <phase duration="20" state="sGGGsrrrsrrrsrrr"/>
      <phase duration="4" state="syyysrrrsrrrsrrr"/>
      <phase duration="20" state="srrrsGGGsrrrsrrr"/>
      <phase duration="4" state="srrrsyyysrrrsrrr"/>
      <phase duration="20" state="srrrsrrrsGGGsrrr"/>
      <phase duration="4" state="srrrsrrrsyyysrrr"/>
      <phase duration="20" state="srrrsrrrsrrrsGGG"/>
      <phase duration="4" state="srrrsrrrsrrrsyyy"/>
   </tlLogic>
   <tlLogic id="3500060650" type="static" programID="program_3500060650" offset="0">
      <phase duration="20" state="GGGG"/>
      <phase duration="4" state="yyyy"/>
      <phase duration="10" state="rrrr"/>
   </tlLogic>
   <tlLogic id="3500060660" type="static" programID="program_3500060660" offset="0">
      <phase duration="20" state="GGGG"/>
      <phase duration="4" state="yyyy"/>
      <phase duration="10" state="rrrr"/>
   </tlLogic>
   <tlLogic id="3500060800" type="static" programID="program_3500060800" offset="0">
      <phase duration="20" state="sGGGrrrGsr"/>
      <phase duration="4" state="syyyrrrGsr"/>
      <phase duration="20" state="srrrGGGGsr"/>
      <phase duration="4" state="srrryyyGsr"/>
      <phase duration="20" state="srrrrrrGsG"/>
      <phase duration="4" state="srrrrrrGsy"/>
   </tlLogic>
   <tlLogic id="3500060850" type="static" programID="program_3500060850" offset="0">
      <phase duration="20" state="GGGGGG"/>
      <phase duration="4" state="yyyyyy"/>
      <phase duration="10" state="rrrrrr"/>
   </tlLogic>
   <tlLogic id="3500060860" type="static" programID="program_3500060860" offset="0">
      <phase duration="20" state="GGGGGG"/>
      <phase duration="4" state="yyyyyy"/>
      <phase duration="10" state="rrrrrr"/>
   </tlLogic>
   <tlLogic id="3500062100" type="static" programID="program_3500062100" offset="0">
      <phase duration="20" state="sGGsrrrsrrsrrr"/>
      <phase duration="4" state="syysrrrsrrsrrr"/>
      <phase duration="20" state="srrsGGGsrrsrrr"/>
      <phase duration="4" state="srrsyyysrrsrrr"/>
      <phase duration="20" state="srrsrrrsGGsrrr"/>
      <phase duration="4" state="srrsrrrsyysrrr"/>
      <phase duration="20" state="srrsrrrsrrsGGG"/>
      <phase duration="4" state="srrsrrrsrrsyyy"/>
   </tlLogic>
   <tlLogic id="3500062500" type="static" programID="program_3500062500" offset="0">
      <phase duration="20" state="sGGGsrrrrGsrrrsrrrrG"/>
      <phase duration="4" state="syyysrrrrGsrrrsrrrrG"/>
      <phase duration="20" state="srrrsGGGGGsrrrsrrrrG"/>
      <phase duration="4" state="srrrsyyyyGsrrrsrrrrG"/>
      <phase duration="20" state="srrrsrrrrGsGGGsrrrrG"/>
      <phase duration="4" state="srrrsrrrrGsyyysrrrrG"/>
      <phase duration="20" state="srrrsrrrrGsrrrsGGGGG"/>
      <phase duration="4" state="srrrsrrrrGsrrrsyyyyG"/>
   </tlLogic>
   <tlLogic id="3500062550" type="static" programID="program_3500062550" offset="0">
      <phase duration="20" state="GGGGGGGG"/>
      <phase duration="4" state="yyyyyyyy"/>
      <phase duration="10" state="rrrrrrrr"/>
   </tlLogic>
   <tlLogic id="3500065800" type="static" programID="program_3500065800" offset="0">
      <phase duration="20" state="sGGGsrrrrrGsrrrsrrrrrG"/>
      <phase duration="4" state="syyysrrrrrGsrrrsrrrrrG"/>
      <phase duration="20" state="srrrsGGGGGGsrrrsrrrrrG"/>
      <phase duration="4" state="srrrsyyyyyGsrrrsrrrrrG"/>
      <phase duration="20" state="srrrsrrrrrGsGGGsrrrrrG"/>
      <phase duration="4" state="srrrsrrrrrGsyyysrrrrrG"/>
      <phase duration="20" state="srrrsrrrrrGsrrrsGGGGGG"/>
      <phase duration="4" state="srrrsrrrrrGsrrrsyyyyyG"/>
   </tlLogic>
   <tlLogic id="3500065850" type="static" programID="program_3500065850" offset="0">
      <phase duration="20" state="GGGGGGGG"/>
      <phase duration="4" state="yyyyyyyy"/>
      <phase duration="10" state="rrrrrrrr"/>
   </tlLogic>
   <tlLogic id="3500302300" type="static" programID="program_3500302300" offset="0">
      <phase duration="20" state="sGGGrrrrsr"/>
      <phase duration="4" state="syyyrrrrsr"/>
      <phase duration="20" state="srrrGGGGsr"/>
      <phase duration="4" state="srrryyyysr"/>
      <phase duration="20" state="srrrrrrrsG"/>
      <phase duration="4" state="srrrrrrrsy"/>
   </tlLogic>
   <tlLogic id="3510000200" type="static" programID="program_3510000200" offset="0">
      <phase duration="20" state="sGGrrrrGsrsrrr"/>
      <phase duration="4" state="syyrrrrGsrsrrr"/>
      <phase duration="20" state="srrGGGGGsrsrrr"/>
      <phase duration="4" state="srryyyyGsrsrrr"/>
      <phase duration="20" state="srrrrrrGsGsrrr"/>
      <phase duration="4" state="srrrrrrGsysrrr"/>
      <phase duration="20" state="srrrrrrGsrsGGG"/>
      <phase duration="4" state="srrrrrrGsrsyyy"/>
   </tlLogic>
   <tlLogic id="3510000250" type="static" programID="program_3510000250" offset="0">
      <phase duration="20" state="srrrrrr"/>
      <phase duration="4" state="srrrrrr"/>
      <phase duration="20" state="sGGGrrr"/>
      <phase duration="4" state="syyyrrr"/>
      <phase duration="20" state="srrrGGG"/>
      <phase duration="4" state="srrryyy"/>
   </tlLogic>
   <tlLogic id="3510000300" type="static" programID="program_3510000300" offset="0">
      <phase duration="20" state="GGGGssrGsrrrG"/>
      <phase duration="4" state="yyyyssrGsrrrG"/>
      <phase duration="20" state="rrrrssGGsrrrG"/>
      <phase duration="4" state="rrrrssyGsrrrG"/>
      <phase duration="20" state="rrrrssrGsrrrG"/>
      <phase duration="4" state="rrrrssrGsrrrG"/>
      <phase duration="20" state="rrrrssrGsGGGG"/>
      <phase duration="4" state="rrrrssrGsyyyG"/>
   </tlLogic>
   <tlLogic id="3510000400" type="static" programID="program_3510000400" offset="0">
      <phase duration="20" state="sGGGGGsrrrsrrrrsrrr"/>
      <phase duration="4" state="syyyyGsrrrsrrrrsrrr"/>
      <phase duration="20" state="srrrrGsGGGsrrrrsrrr"/>
      <phase duration="4" state="srrrrGsyyysrrrrsrrr"/>
      <phase duration="20" state="srrrrGsrrrsGGGGsrrr"/>
      <phase duration="4" state="srrrrGsrrrsyyyysrrr"/>
      <phase duration="20" state="srrrrGsrrrsrrrrsGGG"/>
      <phase duration="4" state="srrrrGsrrrsrrrrsyyy"/>
   </tlLogic>
   <tlLogic id="3510021200" type="static" programID="program_3510021200" offset="0">
      <phase duration="20" state="sGGGGGsrrrsrrrrGsrrrG"/>
      <phase duration="4" state="syyyyGsrrrsrrrrGsrrrG"/>
      <phase duration="20" state="srrrrGsGGGsrrrrGsrrrG"/>
      <phase duration="4" state="srrrrGsyyysrrrrGsrrrG"/>
      <phase duration="20" state="srrrrGsrrrsGGGGGsrrrG"/>
      <phase duration="4" state="srrrrGsrrrsyyyyGsrrrG"/>
      <phase duration="20" state="srrrrGsrrrsrrrrGsGGGG"/>
      <phase duration="4" state="srrrrGsrrrsrrrrGsyyyG"/>
   </tlLogic>
   <tlLogic id="3510021250" type="static" programID="program_3510021250" offset="0">
      <phase duration="20" state="GGGGGG"/>
      <phase duration="4" state="yyyyyy"/>
      <phase duration="10" state="rrrrrr"/>
   </tlLogic>
   <tlLogic id="3510021300" type="static" programID="program_3510021300" offset="0">
      <phase duration="20" state="GGGsrsrr"/>
      <phase duration="4" state="yyysrsrr"/>
      <phase duration="20" state="rrrsGsrr"/>
      <phase duration="4" state="rrrsysrr"/>
      <phase duration="20" state="rrrsrsGG"/>
      <phase duration="4" state="rrrsrsyy"/>
   </tlLogic>
   <tlLogic id="3510021350" type="static" programID="program_3510021350" offset="0">
      <phase duration="20" state="GGGG"/>
      <phase duration="4" state="yyyy"/>
      <phase duration="10" state="rrrr"/>
   </tlLogic>
   <tlLogic id="3510021400" type="static" programID="program_3510021400" offset="0">
      <phase duration="20" state="sssrrrssrrr"/>
      <phase duration="4" state="sssrrrssrrr"/>
      <phase duration="20" state="sssGGGssrrr"/>
      <phase duration="4" state="sssyyyssrrr"/>
      <phase duration="20" state="sssrrrssrrr"/>
      <phase duration="4" state="sssrrrssrrr"/>
      <phase duration="20" state="sssrrrssGGG"/>
      <phase duration="4" state="sssrrrssyyy"/>
   </tlLogic>
   <tlLogic id="3510021500" type="static" programID="program_3510021500" offset="0">
      <phase duration="20" state="sGGGGsrrrrrGsrrrGsrrrrrG"/>
      <phase duration="4" state="syyyGsrrrrrGsrrrGsrrrrrG"/>
      <phase duration="20" state="srrrGsGGGGGGsrrrGsrrrrrG"/>
      <phase duration="4" state="srrrGsyyyyyGsrrrGsrrrrrG"/>
      <phase duration="20" state="srrrGsrrrrrGsGGGGsrrrrrG"/>
      <phase duration="4" state="srrrGsrrrrrGsyyyGsrrrrrG"/>
      <phase duration="20" state="srrrGsrrrrrGsrrrGsGGGGGG"/>
      <phase duration="4" state="srrrGsrrrrrGsrrrGsyyyyyG"/>
   </tlLogic>
   <tlLogic id="3510021700" type="static" programID="program_3510021700" offset="0">
      <phase duration="20" state="GGGGGGGGGG"/>
      <phase duration="4" state="yyyyyyyyyy"/>
      <phase duration="10" state="rrrrrrrrrr"/>
   </tlLogic>
</tlLogics>