<edges>
   <edge id="3500006301_0i" from="3500006301_0" to="3500006301" numLanes="4" speed="60.000000" length="50.000000"/>
   <edge id="3500006301_0o" from="3500006301" to="3500006301_0" numLanes="3" speed="60.000000" length="50.000000"/>

   <edge id="3500006301_1i" from="3500006301_1" to="3500006301" numLanes="3" speed="40.000000" length="50.000000"/>
   <edge id="3500006301_1o" from="3500006301" to="3500006301_1" numLanes="2" speed="40.000000" length="50.000000"/>

   <edge id="3500006301_2i" from="3500006301_2" to="3500006301" numLanes="3" speed="60.000000" length="50.000000"/>
   <edge id="3500006301_2o" from="3500006301" to="3500006301_2" numLanes="3" speed="60.000000" length="50.000000"/>

   <edge id="3500006301_3o" from="3500006301" to="3500006301_3" numLanes="1" speed="30.000000" length="25.000000"/>

   <edge id="3500006600_0i" from="3500006600_0" to="3500006600" numLanes="4" speed="50.000000" length="50.000000"/>
   <edge id="3500006600_0o" from="3500006600" to="3500006600_0" numLanes="3" speed="50.000000" length="50.000000"/>

   <edge id="3500006600_1i" from="3500006600_1" to="3500006600" numLanes="3" speed="50.000000" length="50.000000"/>
   <edge id="3500006600_1o" from="3500006600" to="3500006600_1" numLanes="3" speed="50.000000" length="50.000000"/>

   <edge id="3500006600_2i" from="3500006600_2" to="3500006600" numLanes="5" speed="50.000000" length="50.000000"/>
   <edge id="3500006600_2o" from="3500006600" to="3500006600_2" numLanes="3" speed="50.000000" length="50.000000"/>

   <edge id="3500006600_3i" from="3500006600_3" to="3500006600" numLanes="4" speed="30.000000" length="50.000000"/>
   <edge id="3500006600_3o" from="3500006600" to="3500006600_3" numLanes="2" speed="30.000000" length="50.000000"/>

   <edge id="3500006650_0i" from="3500006650_0" to="3500006650" numLanes="4" speed="50.000000" length="50.000000"/>
   <edge id="3500006650_0o" from="3500006650" to="3500006650_0" numLanes="3" speed="50.000000" length="50.000000"/>

   <edge id="3500006650_1i" from="3500006650_1" to="3500006650" numLanes="3" speed="30.000000" length="50.000000"/>
   <edge id="3500006650_1o" from="3500006650" to="3500006650_1" numLanes="3" speed="30.000000" length="50.000000"/>

   <edge id="3500006650_2i" from="3500006650_2" to="3500006650" numLanes="3" speed="50.000000" length="30.000000"/>
   <edge id="3500006650_2o" from="3500006650" to="3500006650_2" numLanes="3" speed="50.000000" length="30.000000"/>

   <edge id="3500006660_0i" from="3500006660_0" to="3500006660" numLanes="4" speed="50.000000" length="20.000000"/>
   <edge id="3500006660_0o" from="3500006660" to="3500006660_0" numLanes="3" speed="50.000000" length="20.000000"/>

   <edge id="3500006660_1i" from="3500006660_1" to="3500006660" numLanes="1" speed="30.000000" length="50.000000"/>
   <edge id="3500006660_1o" from="3500006660" to="3500006660_1" numLanes="1" speed="30.000000" length="50.000000"/>

   <edge id="3500006660_2i" from="3500006660_2" to="3500006660" numLanes="3" speed="50.000000" length="50.000000"/>
   <edge id="3500006660_2o" from="3500006660" to="3500006660_2" numLanes="3" speed="50.000000" length="50.000000"/>

   <edge id="3500006700_0i" from="3500006700_0" to="3500006700" numLanes="5" speed="60.000000" length="50.000000"/>
   <edge id="3500006700_0o" from="3500006700" to="3500006700_0" numLanes="4" speed="60.000000" length="50.000000"/>

   <edge id="3500006700_1i" from="3500006700_1" to="3500006700" numLanes="5" speed="50.000000" length="50.000000"/>
   <edge id="3500006700_1o" from="3500006700" to="3500006700_1" numLanes="3" speed="50.000000" length="50.000000"/>

   <edge id="3500006700_2i" from="3500006700_2" to="3500006700" numLanes="4" speed="60.000000" length="50.000000"/>
   <edge id="3500006700_2o" from="3500006700" to="3500006700_2" numLanes="3" speed="60.000000" length="50.000000"/>

   <edge id="3500006700_3i" from="3500006700_3" to="3500006700" numLanes="2" speed="30.000000" length="50.000000"/>
   <edge id="3500006700_3o" from="3500006700" to="3500006700_3" numLanes="2" speed="30.000000" length="50.000000"/>

   <edge id="3500006800_0i" from="3500006800_0" to="3500006800" numLanes="4" speed="50.000000" length="50.000000"/>
   <edge id="3500006800_0o" from="3500006800" to="3500006800_0" numLanes="3" speed="50.000000" length="50.000000"/>

   <edge id="3500006800_1i" from="3500006800_1" to="3500006800" numLanes="3" speed="50.000000" length="20.000000"/>
   <edge id="3500006800_1o" from="3500006800" to="3500006800_1" numLanes="4" speed="50.000000" length="20.000000"/>

   <edge id="3500006800_2i" from="3500006800_2" to="3500006800" numLanes="1" speed="30.000000" length="50.000000"/>
   <edge id="3500006800_2o" from="3500006800" to="3500006800_2" numLanes="1" speed="30.000000" length="50.000000"/>

   <edge id="3500006900_0i" from="3500006900_0" to="3500006900" numLanes="1" speed="30.000000" length="50.000000"/>
   <edge id="3500006900_0o" from="3500006900" to="3500006900_0" numLanes="1" speed="30.000000" length="50.000000"/>

   <edge id="3500006900_1i" from="3500006900_1" to="3500006900" numLanes="3" speed="50.000000" length="50.000000"/>
   <edge id="3500006900_1o" from="3500006900" to="3500006900_1" numLanes="3" speed="50.000000" length="50.000000"/>

   <edge id="3500006900_2i" from="3500006900_2" to="3500006900" numLanes="3" speed="50.000000" length="50.000000"/>
   <edge id="3500006900_2o" from="3500006900" to="3500006900_2" numLanes="3" speed="50.000000" length="50.000000"/>

   <edge id="3500006901_0i" from="3500006901_0" to="3500006901" numLanes="4" speed="50.000000" length="50.000000"/>
   <edge id="3500006901_0o" from="3500006901" to="3500006901_0" numLanes="3" speed="50.000000" length="50.000000"/>

   <edge id="3500006901_1i" from="3500006901_1" to="3500006901" numLanes="2" speed="30.000000" length="50.000000"/>
   <edge id="3500006901_1o" from="3500006901" to="3500006901_1" numLanes="2" speed="30.000000" length="50.000000"/>

   <edge id="3500006901_2i" from="3500006901_2" to="3500006901" numLanes="4" speed="50.000000" length="50.000000"/>
   <edge id="3500006901_2o" from="3500006901" to="3500006901_2" numLanes="3" speed="50.000000" length="50.000000"/>

   <edge id="3500007100_0i" from="3500007100_0" to="3500007100" numLanes="3" speed="50.000000" length="50.000000"/>
   <edge id="3500007100_0o" from="3500007100" to="3500007100_0" numLanes="3" speed="50.000000" length="50.000000"/>

   <edge id="3500007100_1i" from="3500007100_1" to="3500007100" numLanes="4" speed="50.000000" length="50.000000"/>
   <edge id="3500007100_1o" from="3500007100" to="3500007100_1" numLanes="3" speed="50.000000" length="50.000000"/>

   <edge id="3500007100_2i" from="3500007100_2" to="3500007100" numLanes="3" speed="50.000000" length="50.000000"/>
   <edge id="3500007100_2o" from="3500007100" to="3500007100_2" numLanes="3" speed="50.000000" length="50.000000"/>

   <edge id="3500007100_3i" from="3500007100_3" to="3500007100" numLanes="4" speed="50.000000" length="50.000000"/>
   <edge id="3500007100_3o" from="3500007100" to="3500007100_3" numLanes="3" speed="50.000000" length="50.000000"/>

   <edge id="3500007300_0i" from="3500007300_0" to="3500007300" numLanes="4" speed="50.000000" length="50.000000"/>
   <edge id="3500007300_0o" from="3500007300" to="3500007300_0" numLanes="3" speed="50.000000" length="50.000000"/>

   <edge id="3500007300_1i" from="3500007300_1" to="3500007300" numLanes="2" speed="30.000000" length="50.000000"/>
   <edge id="3500007300_1o" from="3500007300" to="3500007300_1" numLanes="2" speed="30.000000" length="50.000000"/>

   <edge id="3500007300_2i" from="3500007300_2" to="3500007300" numLanes="4" speed="50.000000" length="50.000000"/>
   <edge id="3500007300_2o" from="3500007300" to="3500007300_2" numLanes="3" speed="50.000000" length="50.000000"/>

   <edge id="3500007300_3i" from="3500007300_3" to="3500007300" numLanes="2" speed="30.000000" length="50.000000"/>
   <edge id="3500007300_3o" from="3500007300" to="3500007300_3" numLanes="2" speed="30.000000" length="50.000000"/>

   <edge id="3500007350_0i" from="3500007350_0" to="3500007350" numLanes="3" speed="50.000000" length="50.000000"/>
   <edge id="3500007350_0o" from="3500007350" to="3500007350_0" numLanes="3" speed="50.000000" length="50.000000"/>

   <edge id="3500007350_1i" from="3500007350_1" to="3500007350" numLanes="3" speed="50.000000" length="50.000000"/>
   <edge id="3500007350_1o" from="3500007350" to="3500007350_1" numLanes="3" speed="50.000000" length="50.000000"/>

   <edge id="3500007400_0i" from="3500007400_0" to="3500007400" numLanes="1" speed="30.000000" length="50.000000"/>
   <edge id="3500007400_0o" from="3500007400" to="3500007400_0" numLanes="1" speed="30.000000" length="50.000000"/>

   <edge id="3500007400_1i" from="3500007400_1" to="3500007400" numLanes="4" speed="30.000000" length="50.000000"/>
   <edge id="3500007400_1o" from="3500007400" to="3500007400_1" numLanes="3" speed="30.000000" length="50.000000"/>

   <edge id="3500007400_2i" from="3500007400_2" to="3500007400" numLanes="3" speed="50.000000" length="50.000000"/>
   <edge id="3500007400_2o" from="3500007400" to="3500007400_2" numLanes="4" speed="50.000000" length="50.000000"/>

   <edge id="3500007500_0i" from="3500007500_0" to="3500007500" numLanes="4" speed="60.000000" length="50.000000"/>
   <edge id="3500007500_0o" from="3500007500" to="3500007500_0" numLanes="3" speed="60.000000" length="50.000000"/>

   <edge id="3500007500_1i" from="3500007500_1" to="3500007500" numLanes="4" speed="60.000000" length="50.000000"/>
   <edge id="3500007500_1o" from="3500007500" to="3500007500_1" numLanes="3" speed="60.000000" length="50.000000"/>

   <edge id="3500007500_2i" from="3500007500_2" to="3500007500" numLanes="5" speed="60.000000" length="50.000000"/>
   <edge id="3500007500_2o" from="3500007500" to="3500007500_2" numLanes="4" speed="60.000000" length="50.000000"/>

   <edge id="3500007500_3i" from="3500007500_3" to="3500007500" numLanes="4" speed="60.000000" length="50.000000"/>
   <edge id="3500007500_3o" from="3500007500" to="3500007500_3" numLanes="3" speed="60.000000" length="50.000000"/>

   <edge id="3500007900_0i" from="3500007900_0" to="3500007900" numLanes="4" speed="60.000000" length="50.000000"/>
   <edge id="3500007900_0o" from="3500007900" to="3500007900_0" numLanes="3" speed="60.000000" length="50.000000"/>

   <edge id="3500007900_1i" from="3500007900_1" to="3500007900" numLanes="2" speed="50.000000" length="50.000000"/>
   <edge id="3500007900_1o" from="3500007900" to="3500007900_1" numLanes="2" speed="50.000000" length="50.000000"/>

   <edge id="3500007900_2i" from="3500007900_2" to="3500007900" numLanes="4" speed="60.000000" length="50.000000"/>
   <edge id="3500007900_2o" from="3500007900" to="3500007900_2" numLanes="3" speed="60.000000" length="50.000000"/>

   <edge id="3500007900_3i" from="3500007900_3" to="3500007900" numLanes="2" speed="30.000000" length="50.000000"/>

   <edge id="3500008000_0i" from="3500008000_0" to="3500008000" numLanes="4" speed="60.000000" length="50.000000"/>
   <edge id="3500008000_0o" from="3500008000" to="3500008000_0" numLanes="3" speed="60.000000" length="50.000000"/>

   <edge id="3500008000_1i" from="3500008000_1" to="3500008000" numLanes="1" speed="50.000000" length="50.000000"/>
   <edge id="3500008000_1o" from="3500008000" to="3500008000_1" numLanes="1" speed="50.000000" length="50.000000"/>

   <edge id="3500008000_2i" from="3500008000_2" to="3500008000" numLanes="3" speed="60.000000" length="50.000000"/>
   <edge id="3500008000_2o" from="3500008000" to="3500008000_2" numLanes="4" speed="60.000000" length="50.000000"/>

   <edge id="3500051802_0i" from="3500051802_0" to="3500051802" numLanes="3" speed="50.000000" length="50.000000"/>
   <edge id="3500051802_0o" from="3500051802" to="3500051802_0" numLanes="3" speed="50.000000" length="50.000000"/>

   <edge id="3500051802_1i" from="3500051802_1" to="3500051802" numLanes="2" speed="30.000000" length="50.000000"/>
   <edge id="3500051802_1o" from="3500051802" to="3500051802_1" numLanes="2" speed="30.000000" length="50.000000"/>

   <edge id="3500051802_2i" from="3500051802_2" to="3500051802" numLanes="4" speed="50.000000" length="50.000000"/>
   <edge id="3500051802_2o" from="3500051802" to="3500051802_2" numLanes="3" speed="50.000000" length="50.000000"/>

   <edge id="3500051802_3i" from="3500051802_3" to="3500051802" numLanes="5" speed="50.000000" length="30.000000"/>
   <edge id="3500051802_3o" from="3500051802" to="3500051802_3" numLanes="3" speed="50.000000" length="30.000000"/>

   <edge id="3500051804_0i" from="3500051804_0" to="3500051804" numLanes="3" speed="30.000000" length="50.000000"/>
   <edge id="3500051804_0o" from="3500051804" to="3500051804_0" numLanes="3" speed="30.000000" length="50.000000"/>

   <edge id="3500051804_1i" from="3500051804_1" to="3500051804" numLanes="5" speed="50.000000" length="50.000000"/>
   <edge id="3500051804_1o" from="3500051804" to="3500051804_1" numLanes="4" speed="50.000000" length="50.000000"/>

   <edge id="3500051804_2i" from="3500051804_2" to="3500051804" numLanes="5" speed="50.000000" length="50.000000"/>
   <edge id="3500051804_2o" from="3500051804" to="3500051804_2" numLanes="4" speed="50.000000" length="50.000000"/>

   <edge id="3500058500_0i" from="3500058500_0" to="3500058500" numLanes="3" speed="30.000000" length="50.000000"/>
   <edge id="3500058500_0o" from="3500058500" to="3500058500_0" numLanes="2" speed="30.000000" length="50.000000"/>

   <edge id="3500058500_1i" from="3500058500_1" to="3500058500" numLanes="1" speed="30.000000" length="50.000000"/>
   <edge id="3500058500_1o" from="3500058500" to="3500058500_1" numLanes="1" speed="30.000000" length="50.000000"/>

   <edge id="3500058500_2i" from="3500058500_2" to="3500058500" numLanes="3" speed="30.000000" length="50.000000"/>
   <edge id="3500058500_2o" from="3500058500" to="3500058500_2" numLanes="2" speed="30.000000" length="50.000000"/>

   <edge id="3500058500_3i" from="3500058500_3" to="3500058500" numLanes="2" speed="30.000000" length="50.000000"/>
   <edge id="3500058500_3o" from="3500058500" to="3500058500_3" numLanes="2" speed="30.000000" length="50.000000"/>

   <edge id="3500058550_0i" from="3500058550_0" to="3500058550" numLanes="2" speed="30.000000" length="30.000000"/>
   <edge id="3500058550_0o" from="3500058550" to="3500058550_0" numLanes="2" speed="30.000000" length="30.000000"/>

   <edge id="3500058550_1i" from="3500058550_1" to="3500058550" numLanes="2" speed="30.000000" length="30.000000"/>
   <edge id="3500058550_1o" from="3500058550" to="3500058550_1" numLanes="2" speed="30.000000" length="30.000000"/>

   <edge id="3500058700_0i" from="3500058700_0" to="3500058700" numLanes="1" speed="30.000000" length="50.000000"/>
   <edge id="3500058700_0o" from="3500058700" to="3500058700_0" numLanes="1" speed="30.000000" length="50.000000"/>

   <edge id="3500058700_1i" from="3500058700_1" to="3500058700" numLanes="2" speed="30.000000" length="50.000000"/>
   <edge id="3500058700_1o" from="3500058700" to="3500058700_1" numLanes="2" speed="30.000000" length="50.000000"/>

   <edge id="3500058700_2i" from="3500058700_2" to="3500058700" numLanes="1" speed="30.000000" length="50.000000"/>
   <edge id="3500058700_2o" from="3500058700" to="3500058700_2" numLanes="1" speed="30.000000" length="50.000000"/>

   <edge id="3500058700_3i" from="3500058700_3" to="3500058700" numLanes="2" speed="30.000000" length="50.000000"/>
   <edge id="3500058700_3o" from="3500058700" to="3500058700_3" numLanes="2" speed="30.000000" length="50.000000"/>

   <edge id="3500058900_0i" from="3500058900_0" to="3500058900" numLanes="3" speed="50.000000" length="30.000000"/>
   <edge id="3500058900_0o" from="3500058900" to="3500058900_0" numLanes="3" speed="50.000000" length="30.000000"/>

   <edge id="3500058900_1i" from="3500058900_1" to="3500058900" numLanes="2" speed="30.000000" length="50.000000"/>
   <edge id="3500058900_1o" from="3500058900" to="3500058900_1" numLanes="2" speed="30.000000" length="50.000000"/>

   <edge id="3500058900_2i" from="3500058900_2" to="3500058900" numLanes="3" speed="50.000000" length="50.000000"/>
   <edge id="3500058900_2o" from="3500058900" to="3500058900_2" numLanes="4" speed="50.000000" length="50.000000"/>

   <edge id="3500058900_3i" from="3500058900_3" to="3500058900" numLanes="3" speed="30.000000" length="50.000000"/>
   <edge id="3500058900_3o" from="3500058900" to="3500058900_3" numLanes="2" speed="30.000000" length="50.000000"/>

   <edge id="3500059300_0i" from="3500059300_0" to="3500059300" numLanes="2" speed="30.000000" length="50.000000"/>
   <edge id="3500059300_0o" from="3500059300" to="3500059300_0" numLanes="2" speed="30.000000" length="50.000000"/>

   <edge id="3500059300_1i" from="3500059300_1" to="3500059300" numLanes="2" speed="30.000000" length="50.000000"/>
   <edge id="3500059300_1o" from="3500059300" to="3500059300_1" numLanes="2" speed="30.000000" length="50.000000"/>

   <edge id="3500059300_2i" from="3500059300_2" to="3500059300" numLanes="2" speed="30.000000" length="50.000000"/>
   <edge id="3500059300_2o" from="3500059300" to="3500059300_2" numLanes="2" speed="30.000000" length="50.000000"/>

   <edge id="3500059350_0i" from="3500059350_0" to="3500059350" numLanes="2" speed="30.000000" length="30.000000"/>
   <edge id="3500059350_0o" from="3500059350" to="3500059350_0" numLanes="2" speed="30.000000" length="30.000000"/>

   <edge id="3500059350_1i" from="3500059350_1" to="3500059350" numLanes="2" speed="30.000000" length="30.000000"/>
   <edge id="3500059350_1o" from="3500059350" to="3500059350_1" numLanes="2" speed="30.000000" length="30.000000"/>

   <edge id="3500059800_0i" from="3500059800_0" to="3500059800" numLanes="3" speed="30.000000" length="50.000000"/>
   <edge id="3500059800_0o" from="3500059800" to="3500059800_0" numLanes="2" speed="30.000000" length="50.000000"/>

   <edge id="3500059800_1i" from="3500059800_1" to="3500059800" numLanes="1" speed="30.000000" length="50.000000"/>
   <edge id="3500059800_1o" from="3500059800" to="3500059800_1" numLanes="1" speed="30.000000" length="50.000000"/>

   <edge id="3500059800_2i" from="3500059800_2" to="3500059800" numLanes="2" speed="30.000000" length="50.000000"/>
   <edge id="3500059800_2o" from="3500059800" to="3500059800_2" numLanes="2" speed="30.000000" length="50.000000"/>

   <edge id="3500059850_0i" from="3500059850_0" to="3500059850" numLanes="2" speed="30.000000" length="50.000000"/>
   <edge id="3500059850_0o" from="3500059850" to="3500059850_0" numLanes="2" speed="30.000000" length="50.000000"/>

   <edge id="3500059850_1i" from="3500059850_1" to="3500059850" numLanes="2" speed="30.000000" length="50.000000"/>
   <edge id="3500059850_1o" from="3500059850" to="3500059850_1" numLanes="2" speed="30.000000" length="50.000000"/>

   <edge id="3500060100_0i" from="3500060100_0" to="3500060100" numLanes="1" speed="30.000000" length="50.000000"/>
   <edge id="3500060100_0o" from="3500060100" to="3500060100_0" numLanes="1" speed="30.000000" length="50.000000"/>

   <edge id="3500060100_1i" from="3500060100_1" to="3500060100" numLanes="2" speed="30.000000" length="50.000000"/>
   <edge id="3500060100_1o" from="3500060100" to="3500060100_1" numLanes="2" speed="30.000000" length="50.000000"/>

   <edge id="3500060100_2i" from="3500060100_2" to="3500060100" numLanes="1" speed="30.000000" length="50.000000"/>
   <edge id="3500060100_2o" from="3500060100" to="3500060100_2" numLanes="1" speed="30.000000" length="50.000000"/>

   <edge id="3500060100_3i" from="3500060100_3" to="3500060100" numLanes="2" speed="30.000000" length="50.000000"/>
   <edge id="3500060100_3o" from="3500060100" to="3500060100_3" numLanes="2" speed="30.000000" length="50.000000"/>

   <edge id="3500060600_0i" from="3500060600_0" to="3500060600" numLanes="3" speed="30.000000" length="50.000000"/>
   <edge id="3500060600_0o" from="3500060600" to="3500060600_0" numLanes="2" speed="30.000000" length="50.000000"/>

   <edge id="3500060600_1i" from="3500060600_1" to="3500060600" numLanes="2" speed="30.000000" length="50.000000"/>
   <edge id="3500060600_1o" from="3500060600" to="3500060600_1" numLanes="2" speed="30.000000" length="50.000000"/>

   <edge id="3500060600_2i" from="3500060600_2" to="3500060600" numLanes="3" speed="30.000000" length="50.000000"/>
   <edge id="3500060600_2o" from="3500060600" to="3500060600_2" numLanes="2" speed="30.000000" length="50.000000"/>

   <edge id="3500060600_3i" from="3500060600_3" to="3500060600" numLanes="2" speed="30.000000" length="50.000000"/>
   <edge id="3500060600_3o" from="3500060600" to="3500060600_3" numLanes="2" speed="30.000000" length="50.000000"/>

   <edge id="3500060650_0i" from="3500060650_0" to="3500060650" numLanes="2" speed="30.000000" length="20.000000"/>
   <edge id="3500060650_0o" from="3500060650" to="3500060650_0" numLanes="2" speed="30.000000" length="20.000000"/>

   <edge id="3500060650_1i" from="3500060650_1" to="3500060650" numLanes="2" speed="30.000000" length="20.000000"/>
   <edge id="3500060650_1o" from="3500060650" to="3500060650_1" numLanes="2" speed="30.000000" length="20.000000"/>

   <edge id="3500060660_0i" from="3500060660_0" to="3500060660" numLanes="2" speed="30.000000" length="20.000000"/>
   <edge id="3500060660_0o" from="3500060660" to="3500060660_0" numLanes="3" speed="30.000000" length="20.000000"/>

   <edge id="3500060660_1i" from="3500060660_1" to="3500060660" numLanes="2" speed="30.000000" length="20.000000"/>
   <edge id="3500060660_1o" from="3500060660" to="3500060660_1" numLanes="3" speed="30.000000" length="20.000000"/>

   <edge id="3500060800_0i" from="3500060800_0" to="3500060800" numLanes="3" speed="50.000000" length="30.000000"/>
   <edge id="3500060800_0o" from="3500060800" to="3500060800_0" numLanes="3" speed="50.000000" length="30.000000"/>

   <edge id="3500060800_1i" from="3500060800_1" to="3500060800" numLanes="3" speed="50.000000" length="30.000000"/>
   <edge id="3500060800_1o" from="3500060800" to="3500060800_1" numLanes="3" speed="50.000000" length="30.000000"/>

   <edge id="3500060800_2i" from="3500060800_2" to="3500060800" numLanes="1" speed="30.000000" length="30.000000"/>
   <edge id="3500060800_2o" from="3500060800" to="3500060800_2" numLanes="1" speed="30.000000" length="30.000000"/>

   <edge id="3500060850_0i" from="3500060850_0" to="3500060850" numLanes="3" speed="50.000000" length="30.000000"/>
   <edge id="3500060850_0o" from="3500060850" to="3500060850_0" numLanes="3" speed="50.000000" length="30.000000"/>

   <edge id="3500060850_1i" from="3500060850_1" to="3500060850" numLanes="3" speed="50.000000" length="30.000000"/>
   <edge id="3500060850_1o" from="3500060850" to="3500060850_1" numLanes="3" speed="50.000000" length="30.000000"/>

   <edge id="3500060860_0i" from="3500060860_0" to="3500060860" numLanes="3" speed="50.000000" length="30.000000"/>
   <edge id="3500060860_0o" from="3500060860" to="3500060860_0" numLanes="3" speed="50.000000" length="30.000000"/>

   <edge id="3500060860_1i" from="3500060860_1" to="3500060860" numLanes="3" speed="50.000000" length="30.000000"/>
   <edge id="3500060860_1o" from="3500060860" to="3500060860_1" numLanes="3" speed="50.000000" length="30.000000"/>

   <edge id="3500062100_0i" from="3500062100_0" to="3500062100" numLanes="1" speed="30.000000" length="50.000000"/>
   <edge id="3500062100_0o" from="3500062100" to="3500062100_0" numLanes="1" speed="30.000000" length="50.000000"/>

   <edge id="3500062100_1i" from="3500062100_1" to="3500062100" numLanes="3" speed="30.000000" length="50.000000"/>
   <edge id="3500062100_1o" from="3500062100" to="3500062100_1" numLanes="2" speed="30.000000" length="50.000000"/>

   <edge id="3500062100_2i" from="3500062100_2" to="3500062100" numLanes="1" speed="30.000000" length="50.000000"/>
   <edge id="3500062100_2o" from="3500062100" to="3500062100_2" numLanes="1" speed="30.000000" length="50.000000"/>

   <edge id="3500062100_3i" from="3500062100_3" to="3500062100" numLanes="3" speed="30.000000" length="50.000000"/>
   <edge id="3500062100_3o" from="3500062100" to="3500062100_3" numLanes="2" speed="30.000000" length="50.000000"/>

   <edge id="3500062400_0i" from="3500062400_0" to="3500062400" numLanes="1" speed="30.000000" length="50.000000"/>
   <edge id="3500062400_0o" from="3500062400" to="3500062400_0" numLanes="1" speed="30.000000" length="50.000000"/>

   <edge id="3500062400_1i" from="3500062400_1" to="3500062400" numLanes="1" speed="30.000000" length="50.000000"/>
   <edge id="3500062400_1o" from="3500062400" to="3500062400_1" numLanes="1" speed="30.000000" length="50.000000"/>

   <edge id="3500062400_2i" from="3500062400_2" to="3500062400" numLanes="1" speed="30.000000" length="50.000000"/>
   <edge id="3500062400_2o" from="3500062400" to="3500062400_2" numLanes="1" speed="30.000000" length="50.000000"/>

   <edge id="3500062400_3i" from="3500062400_3" to="3500062400" numLanes="1" speed="30.000000" length="50.000000"/>
   <edge id="3500062400_3o" from="3500062400" to="3500062400_3" numLanes="1" speed="30.000000" length="50.000000"/>

   <edge id="3500062500_0i" from="3500062500_0" to="3500062500" numLanes="2" speed="30.000000" length="50.000000"/>
   <edge id="3500062500_0o" from="3500062500" to="3500062500_0" numLanes="2" speed="30.000000" length="50.000000"/>

   <edge id="3500062500_1i" from="3500062500_1" to="3500062500" numLanes="5" speed="50.000000" length="50.000000"/>
   <edge id="3500062500_1o" from="3500062500" to="3500062500_1" numLanes="4" speed="50.000000" length="50.000000"/>

   <edge id="3500062500_2i" from="3500062500_2" to="3500062500" numLanes="2" speed="30.000000" length="50.000000"/>
   <edge id="3500062500_2o" from="3500062500" to="3500062500_2" numLanes="2" speed="30.000000" length="50.000000"/>

   <edge id="3500062500_3i" from="3500062500_3" to="3500062500" numLanes="5" speed="50.000000" length="50.000000"/>
   <edge id="3500062500_3o" from="3500062500" to="3500062500_3" numLanes="4" speed="50.000000" length="50.000000"/>

   <edge id="3500062550_0i" from="3500062550_0" to="3500062550" numLanes="4" speed="50.000000" length="50.000000"/>
   <edge id="3500062550_0o" from="3500062550" to="3500062550_0" numLanes="4" speed="50.000000" length="50.000000"/>

   <edge id="3500062550_1i" from="3500062550_1" to="3500062550" numLanes="4" speed="50.000000" length="50.000000"/>
   <edge id="3500062550_1o" from="3500062550" to="3500062550_1" numLanes="4" speed="50.000000" length="50.000000"/>

   <edge id="3500065800_0i" from="3500065800_0" to="3500065800" numLanes="3" speed="50.000000" length="50.000000"/>
   <edge id="3500065800_0o" from="3500065800" to="3500065800_0" numLanes="2" speed="50.000000" length="50.000000"/>

   <edge id="3500065800_1i" from="3500065800_1" to="3500065800" numLanes="5" speed="50.000000" length="50.000000"/>
   <edge id="3500065800_1o" from="3500065800" to="3500065800_1" numLanes="4" speed="50.000000" length="50.000000"/>

   <edge id="3500065800_2i" from="3500065800_2" to="3500065800" numLanes="3" speed="50.000000" length="50.000000"/>
   <edge id="3500065800_2o" from="3500065800" to="3500065800_2" numLanes="2" speed="50.000000" length="50.000000"/>

   <edge id="3500065800_3i" from="3500065800_3" to="3500065800" numLanes="5" speed="50.000000" length="50.000000"/>
   <edge id="3500065800_3o" from="3500065800" to="3500065800_3" numLanes="4" speed="50.000000" length="50.000000"/>

   <edge id="3500065850_0i" from="3500065850_0" to="3500065850" numLanes="4" speed="50.000000" length="50.000000"/>
   <edge id="3500065850_0o" from="3500065850" to="3500065850_0" numLanes="4" speed="50.000000" length="50.000000"/>

   <edge id="3500065850_1i" from="3500065850_1" to="3500065850" numLanes="4" speed="50.000000" length="50.000000"/>
   <edge id="3500065850_1o" from="3500065850" to="3500065850_1" numLanes="4" speed="50.000000" length="50.000000"/>

   <edge id="3500302300_0i" from="3500302300_0" to="3500302300" numLanes="3" speed="50.000000" length="50.000000"/>
   <edge id="3500302300_0o" from="3500302300" to="3500302300_0" numLanes="3" speed="50.000000" length="50.000000"/>

   <edge id="3500302300_1i" from="3500302300_1" to="3500302300" numLanes="3" speed="50.000000" length="50.000000"/>
   <edge id="3500302300_1o" from="3500302300" to="3500302300_1" numLanes="3" speed="50.000000" length="50.000000"/>

   <edge id="3500302300_2i" from="3500302300_2" to="3500302300" numLanes="2" speed="30.000000" length="50.000000"/>
   <edge id="3500302300_2o" from="3500302300" to="3500302300_2" numLanes="2" speed="30.000000" length="50.000000"/>

   <edge id="3510000200_0i" from="3510000200_0" to="3510000200" numLanes="2" speed="30.000000" length="50.000000"/>

   <edge id="3510000200_1i" from="3510000200_1" to="3510000200" numLanes="4" speed="60.000000" length="50.000000"/>
   <edge id="3510000200_1o" from="3510000200" to="3510000200_1" numLanes="3" speed="60.000000" length="50.000000"/>

   <edge id="3510000200_2i" from="3510000200_2" to="3510000200" numLanes="2" speed="50.000000" length="50.000000"/>
   <edge id="3510000200_2o" from="3510000200" to="3510000200_2" numLanes="2" speed="50.000000" length="50.000000"/>

   <edge id="3510000200_3i" from="3510000200_3" to="3510000200" numLanes="3" speed="60.000000" length="50.000000"/>
   <edge id="3510000200_3o" from="3510000200" to="3510000200_3" numLanes="4" speed="60.000000" length="50.000000"/>

   <edge id="3510000250_0i" from="3510000250_0" to="3510000250" numLanes="1" speed="30.000000" length="50.000000"/>

   <edge id="3510000250_1i" from="3510000250_1" to="3510000250" numLanes="3" speed="60.000000" length="50.000000"/>
   <edge id="3510000250_1o" from="3510000250" to="3510000250_1" numLanes="3" speed="60.000000" length="50.000000"/>

   <edge id="3510000250_2i" from="3510000250_2" to="3510000250" numLanes="3" speed="60.000000" length="50.000000"/>