<?xml version="1.0" encoding="UTF-8"?>

<!-- generated on 2024-01-11 15:42:44 by Eclipse SUMO netconvert Version 1.15.0
<configuration xmlns:xsi="http://www.w3.org/2001/XMLSchema-instance" xsi:noNamespaceSchemaLocation="http://sumo.dlr.de/xsd/netconvertConfiguration.xsd">

    <input>
        <node-files value="mytest.nod.xml"/>
        <edge-files value="mytest.edg.xml"/>
        <connection-files value="mytest.con.xml"/>
        <tllogic-files value="mytest.tll.xml"/>
    </input>

    <output>
        <output-file value="mytest.net.xml"/>
    </output>

    <report>
        <verbose value="true"/>
    </report>

</configuration>
-->

<net version="1.9" junctionCornerDetail="5" limitTurnSpeed="5.50" xmlns:xsi="http://www.w3.org/2001/XMLSchema-instance" xsi:noNamespaceSchemaLocation="http://sumo.dlr.de/xsd/net_file.xsd">

    <location netOffset="1683.47,993.67" convBoundary="0.00,0.00,3110.68,2116.93" origBoundary="-1683.47,-993.67,1427.21,1123.26" projParameter="!"/>

    <edge id=":3500006301_0" function="internal">
        <lane id=":3500006301_0_0" index="0" speed="8.10" length="14.57" shape="55.85,172.43 50.80,170.95 46.92,170.64 44.21,171.51 42.66,173.55"/>
    </edge>
    <edge id=":3500006301_1" function="internal">
        <lane id=":3500006301_1_0" index="0" speed="60.00" length="24.28" shape="55.85,172.43 49.31,169.49 45.14,166.79 40.97,164.09 34.42,161.16"/>
        <lane id=":3500006301_1_1" index="1" speed="60.00" length="24.28" shape="56.95,169.42 50.41,166.49 46.24,163.79 42.07,161.09 35.52,158.15"/>
        <lane id=":3500006301_1_2" index="2" speed="60.00" length="24.28" shape="58.06,166.42 51.51,163.48 47.34,160.78 43.17,158.08 36.63,155.15"/>
    </edge>
    <edge id=":3500006301_4" function="internal">
        <lane id=":3500006301_4_0" index="0" speed="10.36" length="24.51" shape="59.16,163.41 53.24,160.23 49.76,155.92 48.72,150.48 50.12,143.91"/>
    </edge>
    <edge id=":3500006301_5" function="internal">
        <lane id=":3500006301_5_0" index="0" speed="3.65" length="4.67" shape="59.16,163.41 58.31,162.25 58.21,161.36 58.86,160.75 60.26,160.41"/>
    </edge>
    <edge id=":3500006301_6" function="internal">
        <lane id=":3500006301_6_0" index="0" speed="6.51" length="9.03" shape="59.14,147.21 58.62,149.64 59.00,151.64 60.29,153.23 62.46,154.40"/>
    </edge>
    <edge id=":3500006301_7" function="internal">
        <lane id=":3500006301_7_0" index="0" speed="35.00" length="30.60" shape="56.13,146.11 52.09,155.68 48.10,163.35 44.76,169.26 42.66,173.55"/>
    </edge>
    <edge id=":3500006301_8" function="internal">
        <lane id=":3500006301_8_0" index="0" speed="9.84" length="21.99" shape="53.13,145.01 50.13,151.00 46.38,154.68 41.88,156.06 36.63,155.15"/>
    </edge>
    <edge id=":3500006301_9" function="internal">
        <lane id=":3500006301_9_0" index="0" speed="6.51" length="9.03" shape="39.93,146.14 42.35,146.65 44.36,146.27 45.95,144.99 47.12,142.81"/>
    </edge>
    <edge id=":3500006301_10" function="internal">
        <lane id=":3500006301_10_0" index="0" speed="60.00" length="24.00" shape="38.83,149.14 61.36,157.40"/>
        <lane id=":3500006301_10_1" index="1" speed="60.00" length="24.00" shape="37.73,152.14 60.26,160.41"/>
    </edge>
    <edge id=":3500006301_0_0" function="internal">
        <lane id=":3500006301_0_0_0" index="0" speed="60.00" length="8.60" shape="94.88,183.33 92.40,182.96 90.58,183.46 88.75,183.96 86.27,183.58"/>
        <lane id=":3500006301_0_0_1" index="1" speed="60.00" length="8.60" shape="95.99,180.33 93.50,179.95 91.68,180.45 89.86,180.96 87.37,180.58"/>
        <lane id=":3500006301_0_0_2" index="2" speed="60.00" length="8.60" shape="97.09,177.33 94.60,176.95 92.78,177.45 90.96,177.95 88.48,177.58"/>
        <lane id=":3500006301_0_0_3" index="3" speed="60.00" length="8.60" shape="97.09,177.33 89.58,174.57"/>
    </edge>
    <edge id=":3500006301_0_4" function="internal">
        <lane id=":3500006301_0_4_0" index="0" speed="60.00" length="8.00" shape="92.88,165.56 100.39,168.31"/>
        <lane id=":3500006301_0_4_1" index="1" speed="60.00" length="8.00" shape="91.78,168.56 99.29,171.32"/>
        <lane id=":3500006301_0_4_2" index="2" speed="60.00" length="8.00" shape="90.68,171.57 98.19,174.32"/>
    </edge>
    <edge id=":3500006301_1_0" function="internal">
        <lane id=":3500006301_1_0_0" index="0" speed="3.65" length="4.67" shape="62.66,109.74 63.82,108.88 64.71,108.78 65.32,109.43 65.66,110.84"/>
    </edge>
    <edge id=":3500006301_2_0" function="internal">
        <lane id=":3500006301_2_0_0" index="0" speed="3.65" length="4.67" shape="-0.55,141.51 -1.40,140.35 -1.50,139.46 -0.85,138.85 0.55,138.51"/>
    </edge>
    <edge id=":3500006600_0" function="internal">
        <lane id=":3500006600_0_0" index="0" speed="8.16" length="16.36" shape="2030.56,350.68 2024.83,349.37 2020.58,349.45 2017.80,350.90 2016.50,353.72"/>
    </edge>
    <edge id=":3500006600_1" function="internal">
        <lane id=":3500006600_1_0" index="0" speed="28.85" length="37.48" shape="2030.56,350.68 2020.03,347.37 2012.22,345.37 2004.82,344.91 1995.52,346.22"/>
        <lane id=":3500006600_1_1" index="1" speed="29.47" length="37.48" shape="2031.50,347.62 2020.40,344.20 2012.08,342.19 2004.32,341.76 1994.87,343.08"/>
        <lane id=":3500006600_1_2" index="2" speed="30.09" length="37.48" shape="2032.44,344.56 2020.78,341.03 2011.95,339.00 2003.82,338.60 1994.23,339.95"/>
    </edge>
    <edge id=":3500006600_4" function="internal">
        <lane id=":3500006600_4_0" index="0" speed="9.75" length="29.63" shape="2033.38,341.50 2025.99,337.65 2022.49,332.19 2023.03,325.73 2027.76,318.87"/>
    </edge>
    <edge id=":3500006600_5" function="internal">
        <lane id=":3500006600_5_0" index="0" speed="3.65" length="4.67" shape="2033.38,341.50 2032.47,340.38 2032.32,339.50 2032.94,338.85 2034.32,338.44"/>
    </edge>
    <edge id=":3500006600_6" function="internal">
        <lane id=":3500006600_6_0" index="0" speed="22.71" length="33.91" shape="2034.54,325.66 2027.47,333.13 2022.14,339.96 2018.50,346.66 2016.50,353.72"/>
        <lane id=":3500006600_6_1" index="1" speed="23.35" length="35.86" shape="2032.28,323.40 2025.07,331.14 2019.43,338.58 2015.48,345.88 2013.34,353.21"/>
    </edge>
    <edge id=":3500006600_8" function="internal">
        <lane id=":3500006600_8_0" index="0" speed="26.92" length="42.10" shape="2032.28,323.40 2023.93,330.03 2014.79,334.52 2004.89,337.58 1994.23,339.95"/>
        <lane id=":3500006600_8_1" index="1" speed="26.90" length="42.10" shape="2030.02,321.13 2022.12,328.61 2013.98,334.96 2005.07,339.88 1994.87,343.08"/>
    </edge>
    <edge id=":3500006600_10" function="internal">
        <lane id=":3500006600_10_0" index="0" speed="3.65" length="4.67" shape="2030.02,321.13 2028.61,321.42 2027.76,321.13 2027.47,320.28 2027.76,318.87"/>
    </edge>
    <edge id=":3500006600_11" function="internal">
        <lane id=":3500006600_11_0" index="0" speed="24.40" length="34.57" shape="1991.02,324.27 2001.53,322.79 2009.34,322.02 2016.05,319.90 2023.23,314.34"/>
    </edge>
    <edge id=":3500006600_12" function="internal">
        <lane id=":3500006600_12_0" index="0" speed="32.47" length="43.94" shape="1991.66,327.41 2005.87,325.66 2016.79,326.53 2026.28,329.06 2036.20,332.32"/>
        <lane id=":3500006600_12_1" index="1" speed="31.90" length="43.94" shape="1992.31,330.54 2005.93,328.85 2016.35,329.68 2025.48,332.16 2035.26,335.38"/>
        <lane id=":3500006600_12_2" index="2" speed="31.32" length="43.94" shape="1992.95,333.68 2006.00,332.04 2015.91,332.84 2024.68,335.25 2034.32,338.44"/>
    </edge>
    <edge id=":3500006600_15" function="internal">
        <lane id=":3500006600_15_0" index="0" speed="10.48" length="32.04" shape="1993.59,336.81 2002.89,336.19 2009.55,338.66 2013.17,344.31 2013.34,353.21"/>
    </edge>
    <edge id=":3500006600_16" function="internal">
        <lane id=":3500006600_16_0" index="0" speed="3.65" length="4.67" shape="1993.59,336.81 1994.93,337.36 1995.48,338.06 1995.25,338.92 1994.23,339.95"/>
    </edge>
    <edge id=":3500006600_17" function="internal">
        <lane id=":3500006600_17_0" index="0" speed="5.87" length="9.12" shape="2000.70,351.19 2000.75,348.54 1999.91,346.83 1998.16,346.05 1995.52,346.22"/>
    </edge>
    <edge id=":3500006600_18" function="internal">
        <lane id=":3500006600_18_0" index="0" speed="25.33" length="41.27" shape="2003.86,351.69 2007.09,339.37 2011.89,330.72 2018.08,323.79 2025.49,316.61"/>
        <lane id=":3500006600_18_1" index="1" speed="24.74" length="41.27" shape="2007.02,352.20 2010.08,340.31 2014.58,332.24 2020.48,325.83 2027.76,318.87"/>
    </edge>
    <edge id=":3500006600_20" function="internal">
        <lane id=":3500006600_20_0" index="0" speed="11.53" length="33.86" shape="2010.18,352.70 2012.90,343.34 2017.59,338.09 2024.61,336.58 2034.32,338.44"/>
    </edge>
    <edge id=":3500006600_21" function="internal">
        <lane id=":3500006600_21_0" index="0" speed="3.65" length="4.67" shape="2010.18,352.70 2011.16,351.65 2012.01,351.38 2012.74,351.90 2013.34,353.21"/>
    </edge>
    <edge id=":3500006600_0_0" function="internal">
        <lane id=":3500006600_0_0_0" index="0" speed="55.00" length="8.60" shape="2064.05,357.63 2061.55,357.38 2059.75,357.98 2057.96,358.58 2055.46,358.33"/>
        <lane id=":3500006600_0_0_1" index="1" speed="55.00" length="8.60" shape="2064.99,354.57 2062.49,354.32 2060.69,354.92 2058.90,355.52 2056.40,355.27"/>
        <lane id=":3500006600_0_0_2" index="2" speed="55.00" length="8.60" shape="2065.93,351.51 2063.43,351.26 2061.63,351.86 2059.84,352.46 2057.34,352.22"/>
        <lane id=":3500006600_0_0_3" index="3" speed="55.00" length="8.60" shape="2065.93,351.51 2058.28,349.16"/>
    </edge>
    <edge id=":3500006600_0_4" function="internal">
        <lane id=":3500006600_0_4_0" index="0" speed="55.00" length="8.00" shape="2061.10,339.98 2068.75,342.33"/>
        <lane id=":3500006600_0_4_1" index="1" speed="55.00" length="8.00" shape="2060.16,343.04 2067.81,345.39"/>
        <lane id=":3500006600_0_4_2" index="2" speed="55.00" length="8.00" shape="2059.22,346.10 2066.87,348.45"/>
    </edge>
    <edge id=":3500006600_1_0" function="internal">
        <lane id=":3500006600_1_0_0" index="0" speed="3.65" length="4.67" shape="2049.01,297.62 2050.42,297.34 2051.27,297.62 2051.55,298.47 2051.27,299.88"/>
    </edge>
    <edge id=":3500006600_2_0" function="internal">
        <lane id=":3500006600_2_0_0" index="0" speed="55.00" length="8.19" shape="1971.27,351.18 1963.05,352.66"/>
        <lane id=":3500006600_2_0_1" index="1" speed="55.00" length="8.19" shape="1970.62,348.05 1962.56,349.49"/>
        <lane id=":3500006600_2_0_2" index="2" speed="55.00" length="8.19" shape="1969.98,344.91 1962.07,346.33"/>
    </edge>
    <edge id=":3500006600_2_3" function="internal">
        <lane id=":3500006600_2_3_0" index="0" speed="55.00" length="9.63" shape="1960.60,336.84 1962.93,335.48 1963.70,333.13 1964.46,330.74 1966.77,329.24"/>
        <lane id=":3500006600_2_3_1" index="1" speed="55.00" length="9.63" shape="1961.09,340.01 1963.46,338.63 1964.27,336.28 1965.07,333.88 1967.41,332.37"/>
        <lane id=":3500006600_2_3_2" index="2" speed="55.00" length="9.63" shape="1961.58,343.17 1963.99,341.79 1964.84,339.43 1965.67,337.02 1968.06,335.51"/>
        <lane id=":3500006600_2_3_3" index="3" speed="55.00" length="9.63" shape="1961.58,343.17 1963.87,342.31 1965.15,340.98 1966.43,339.62 1968.70,338.64"/>
        <lane id=":3500006600_2_3_4" index="4" speed="55.00" length="9.63" shape="1961.58,343.17 1969.34,341.78"/>
    </edge>
    <edge id=":3500006600_3_0" function="internal">
        <lane id=":3500006600_3_0_0" index="0" speed="40.00" length="8.00" shape="2012.24,380.29 2010.98,388.19"/>
        <lane id=":3500006600_3_0_1" index="1" speed="40.00" length="8.00" shape="2009.08,379.78 2007.82,387.68"/>
    </edge>
    <edge id=":3500006600_3_2" function="internal">
        <lane id=":3500006600_3_2_0" index="0" speed="40.00" length="9.63" shape="2001.50,386.67 2000.94,383.85 1998.97,382.21 1997.01,380.57 1996.44,377.75"/>
        <lane id=":3500006600_3_2_1" index="1" speed="40.00" length="9.63" shape="2004.66,387.17 2004.10,384.36 2002.13,382.72 2000.17,381.08 1999.60,378.26"/>
        <lane id=":3500006600_3_2_2" index="2" speed="40.00" length="9.63" shape="2004.66,387.17 2004.55,384.66 2003.71,382.97 2002.87,381.28 2002.76,378.77"/>
        <lane id=":3500006600_3_2_3" index="3" speed="40.00" length="9.63" shape="2004.66,387.17 2005.92,379.27"/>
    </edge>
    <edge id=":3500006650_0" function="internal">
        <lane id=":3500006650_0_0" index="0" speed="50.00" length="27.45" shape="2512.04,498.74 2504.44,495.88 2499.51,493.21 2494.58,490.54 2486.98,487.69"/>
        <lane id=":3500006650_0_1" index="1" speed="50.00" length="27.45" shape="2512.98,495.68 2505.38,492.82 2500.45,490.15 2495.52,487.49 2487.92,484.63"/>
        <lane id=":3500006650_0_2" index="2" speed="50.00" length="27.45" shape="2513.92,492.62 2506.32,489.76 2501.39,487.09 2496.46,484.43 2488.86,481.57"/>
    </edge>
    <edge id=":3500006650_3" function="internal">
        <lane id=":3500006650_3_0" index="0" speed="10.36" length="24.51" shape="2514.86,489.56 2508.78,486.70 2505.08,482.58 2503.75,477.20 2504.80,470.57"/>
    </edge>
    <edge id=":3500006650_4" function="internal">
        <lane id=":3500006650_4_0" index="0" speed="6.51" length="9.03" shape="2513.98,473.39 2513.59,475.83 2514.08,477.81 2515.44,479.33 2517.68,480.39"/>
    </edge>
    <edge id=":3500006650_5" function="internal">
        <lane id=":3500006650_5_0" index="0" speed="10.88" length="27.14" shape="2510.92,472.45 2507.86,478.47 2503.17,481.99 2496.84,483.03 2488.86,481.57"/>
        <lane id=":3500006650_5_1" index="1" speed="10.88" length="27.14" shape="2507.86,471.51 2504.59,478.92 2500.17,483.58 2494.62,485.48 2487.92,484.63"/>
    </edge>
    <edge id=":3500006650_7" function="internal">
        <lane id=":3500006650_7_0" index="0" speed="6.51" length="9.03" shape="2491.68,472.39 2494.13,472.78 2496.11,472.29 2497.63,470.92 2498.68,468.69"/>
    </edge>
    <edge id=":3500006650_8" function="internal">
        <lane id=":3500006650_8_0" index="0" speed="50.00" length="27.20" shape="2491.68,472.39 2517.68,480.39"/>
        <lane id=":3500006650_8_1" index="1" speed="50.00" length="27.20" shape="2490.74,475.45 2516.74,483.45"/>
        <lane id=":3500006650_8_2" index="2" speed="50.00" length="27.20" shape="2489.80,478.51 2515.80,486.50"/>
    </edge>
    <edge id=":3500006650_0_0" function="internal">
        <lane id=":3500006650_0_0_0" index="0" speed="55.00" length="8.60" shape="2551.60,507.55 2549.10,507.31 2547.30,507.91 2545.51,508.51 2543.01,508.26"/>
        <lane id=":3500006650_0_0_1" index="1" speed="55.00" length="8.60" shape="2552.54,504.50 2550.04,504.25 2548.24,504.85 2546.45,505.45 2543.95,505.20"/>
        <lane id=":3500006650_0_0_2" index="2" speed="55.00" length="8.60" shape="2553.48,501.44 2550.98,501.19 2549.18,501.79 2547.39,502.39 2544.89,502.14"/>
        <lane id=":3500006650_0_0_3" index="3" speed="55.00" length="8.60" shape="2553.48,501.44 2545.83,499.09"/>
    </edge>
    <edge id=":3500006650_0_4" function="internal">
        <lane id=":3500006650_0_4_0" index="0" speed="55.00" length="8.00" shape="2548.65,489.91 2556.30,492.26"/>
        <lane id=":3500006650_0_4_1" index="1" speed="55.00" length="8.00" shape="2547.71,492.97 2555.36,495.32"/>
        <lane id=":3500006650_0_4_2" index="2" speed="55.00" length="8.00" shape="2546.77,496.03 2554.42,498.38"/>
    </edge>
    <edge id=":3500006650_1_0" function="internal">
        <lane id=":3500006650_1_0_0" index="0" speed="3.65" length="4.67" shape="2515.50,435.77 2516.62,434.86 2517.50,434.72 2518.15,435.33 2518.56,436.71"/>
    </edge>
    <edge id=":3500006650_2_0" function="internal">
        <lane id=":3500006650_2_0_0" index="0" speed="55.00" length="1.24" shape="2471.70,482.99 2470.28,482.48"/>
        <lane id=":3500006650_2_0_1" index="1" speed="55.00" length="1.24" shape="2472.64,479.93 2471.48,479.51"/>
        <lane id=":3500006650_2_0_2" index="2" speed="55.00" length="1.24" shape="2473.58,476.87 2472.68,476.55"/>
    </edge>
    <edge id=":3500006650_2_3" function="internal">
        <lane id=":3500006650_2_3_0" index="0" speed="55.00" length="0.41" shape="2476.27,467.65 2476.40,467.69"/>
        <lane id=":3500006650_2_3_1" index="1" speed="55.00" length="0.41" shape="2475.07,470.61 2475.46,470.75"/>
        <lane id=":3500006650_2_3_2" index="2" speed="55.00" length="0.41" shape="2473.88,473.58 2474.52,473.81"/>
    </edge>
    <edge id=":3500006660_0" function="internal">
        <lane id=":3500006660_0_0" index="0" speed="50.00" length="14.86" shape="2262.15,421.89 2258.16,420.14 2255.74,418.25 2253.31,416.35 2249.32,414.60"/>
        <lane id=":3500006660_0_1" index="1" speed="50.00" length="14.86" shape="2263.09,418.83 2259.10,417.09 2256.68,415.19 2254.25,413.29 2250.26,411.54"/>
        <lane id=":3500006660_0_2" index="2" speed="50.00" length="14.86" shape="2264.03,415.78 2260.04,414.03 2257.62,412.13 2255.19,410.23 2251.21,408.48"/>
    </edge>
    <edge id=":3500006660_3" function="internal">
        <lane id=":3500006660_3_0" index="0" speed="9.32" length="19.63" shape="2264.97,412.72 2261.57,410.68 2259.78,407.14 2259.60,402.12 2261.03,395.60"/>
    </edge>
    <edge id=":3500006660_4" function="internal">
        <lane id=":3500006660_4_0" index="0" speed="6.51" length="9.03" shape="2264.08,396.54 2263.70,398.99 2264.19,400.97 2265.55,402.49 2267.79,403.54"/>
    </edge>
    <edge id=":3500006660_5" function="internal">
        <lane id=":3500006660_5_0" index="0" speed="9.32" length="19.63" shape="2264.08,396.54 2261.60,402.74 2258.63,406.79 2255.16,408.71 2251.21,408.48"/>
    </edge>
    <edge id=":3500006660_6" function="internal">
        <lane id=":3500006660_6_0" index="0" speed="6.51" length="9.03" shape="2254.03,399.31 2256.47,399.69 2258.45,399.20 2259.97,397.84 2261.03,395.60"/>
    </edge>
    <edge id=":3500006660_7" function="internal">
        <lane id=":3500006660_7_0" index="0" speed="50.00" length="14.40" shape="2254.03,399.31 2267.79,403.54"/>
        <lane id=":3500006660_7_1" index="1" speed="50.00" length="14.40" shape="2253.09,402.37 2266.85,406.60"/>
        <lane id=":3500006660_7_2" index="2" speed="50.00" length="14.40" shape="2252.15,405.43 2265.91,409.66"/>
    </edge>
    <edge id=":3500006660_0_0" function="internal">
        <lane id=":3500006660_0_0_0" index="0" speed="55.00" length="11.89" shape="2282.30,423.26 2278.45,423.49 2275.78,424.26 2273.17,424.75 2269.47,424.15"/>
        <lane id=":3500006660_0_0_1" index="1" speed="55.00" length="11.89" shape="2282.50,420.06 2278.87,420.31 2276.36,421.10 2273.90,421.63 2270.41,421.09"/>
        <lane id=":3500006660_0_0_2" index="2" speed="55.00" length="11.89" shape="2282.70,416.87 2279.29,417.14 2276.94,417.94 2274.63,418.50 2271.36,418.03"/>
        <lane id=":3500006660_0_0_3" index="3" speed="55.00" length="11.89" shape="2282.70,416.87 2279.56,416.65 2277.41,416.38 2275.31,415.88 2272.30,414.97"/>
    </edge>
    <edge id=":3500006660_0_4" function="internal">
        <lane id=":3500006660_0_4_0" index="0" speed="55.00" length="9.11" shape="2275.12,405.79 2277.49,406.51 2279.14,406.90 2280.83,407.12 2283.30,407.29"/>
        <lane id=":3500006660_0_4_1" index="1" speed="55.00" length="9.11" shape="2274.18,408.85 2276.76,409.63 2278.57,410.06 2280.41,410.30 2283.10,410.48"/>
        <lane id=":3500006660_0_4_2" index="2" speed="55.00" length="9.11" shape="2273.24,411.91 2276.04,412.75 2277.99,413.22 2279.98,413.47 2282.90,413.68"/>
    </edge>
    <edge id=":3500006660_1_0" function="internal">
        <lane id=":3500006660_1_0_0" index="0" speed="3.65" length="4.67" shape="2271.72,360.81 2272.84,359.90 2273.72,359.75 2274.37,360.37 2274.78,361.75"/>
    </edge>
    <edge id=":3500006660_2_0" function="internal">
        <lane id=":3500006660_2_0_0" index="0" speed="55.00" length="0.10" shape="2208.41,402.02 2208.41,402.02"/>
        <lane id=":3500006660_2_0_1" index="1" speed="55.00" length="0.10" shape="2209.36,398.96 2209.36,398.96"/>
        <lane id=":3500006660_2_0_2" index="2" speed="55.00" length="0.10" shape="2210.30,395.90 2210.30,395.90"/>
    </edge>
    <edge id=":3500006660_2_3" function="internal">
        <lane id=":3500006660_2_3_0" index="0" speed="55.00" length="0.10" shape="2213.12,386.73 2213.12,386.73"/>
        <lane id=":3500006660_2_3_1" index="1" speed="55.00" length="0.10" shape="2212.18,389.79 2212.18,389.79"/>
        <lane id=":3500006660_2_3_2" index="2" speed="55.00" length="0.10" shape="2211.24,392.85 2211.24,392.85"/>
    </edge>
    <edge id=":3500006700_0" function="internal">
        <lane id=":3500006700_0_0" index="0" speed="6.81" length="12.92" shape="505.25,350.83 502.03,347.31 499.27,345.59 496.98,345.66 495.15,347.52"/>
    </edge>
    <edge id=":3500006700_1" function="internal">
        <lane id=":3500006700_1_0" index="0" speed="24.22" length="31.86" shape="507.77,348.86 503.05,340.84 500.62,334.33 497.28,329.08 489.84,324.80"/>
        <lane id=":3500006700_1_1" index="1" speed="24.84" length="31.86" shape="510.29,346.89 505.13,338.43 502.23,331.60 498.53,326.14 490.94,321.79"/>
    </edge>
    <edge id=":3500006700_3" function="internal">
        <lane id=":3500006700_3_0" index="0" speed="12.23" length="38.66" shape="512.81,344.91 507.00,335.34 506.05,327.26 510.05,320.18 519.11,313.60"/>
        <lane id=":3500006700_3_1" index="1" speed="12.29" length="39.00" shape="515.33,342.94 508.83,333.20 506.45,324.86 509.06,317.53 517.55,310.81"/>
    </edge>
    <edge id=":3500006700_5" function="internal">
        <lane id=":3500006700_5_0" index="0" speed="6.20" length="9.05" shape="526.92,327.57 524.90,329.11 523.98,330.87 524.15,332.85 525.41,335.05"/>
        <lane id=":3500006700_5_1" index="1" speed="7.75" length="14.81" shape="525.35,324.77 522.06,327.30 520.54,330.18 520.82,333.42 522.89,337.02"/>
    </edge>
    <edge id=":3500006700_7" function="internal">
        <lane id=":3500006700_7_0" index="0" speed="28.28" length="39.92" shape="523.79,321.98 512.32,328.56 503.50,334.31 496.98,339.88 492.38,345.92"/>
    </edge>
    <edge id=":3500006700_8" function="internal">
        <lane id=":3500006700_8_0" index="0" speed="17.38" length="32.41" shape="522.23,319.19 514.57,322.54 506.80,324.09 498.92,323.84 490.94,321.79"/>
        <lane id=":3500006700_8_1" index="1" speed="17.45" length="32.70" shape="520.67,316.39 510.76,321.38 502.31,324.44 495.34,325.58 489.84,324.80"/>
    </edge>
    <edge id=":3500006700_10" function="internal">
        <lane id=":3500006700_10_0" index="0" speed="14.17" length="21.38" shape="495.35,309.78 500.60,311.12 505.79,311.27 510.92,310.24 515.99,308.01"/>
    </edge>
    <edge id=":3500006700_11" function="internal">
        <lane id=":3500006700_11_0" index="0" speed="26.92" length="36.63" shape="494.25,312.78 504.53,317.22 510.84,321.78 516.01,327.91 522.89,337.02"/>
        <lane id=":3500006700_11_1" index="1" speed="26.29" length="36.63" shape="493.15,315.79 502.93,320.03 508.92,324.42 513.83,330.29 520.37,339.00"/>
        <lane id=":3500006700_11_2" index="2" speed="25.65" length="36.63" shape="492.04,318.79 501.34,322.84 507.00,327.05 511.64,332.67 517.85,340.97"/>
    </edge>
    <edge id=":3500006700_14" function="internal">
        <lane id=":3500006700_14_0" index="0" speed="8.15" length="16.71" shape="486.84,342.72 489.75,336.95 491.03,332.55 490.70,329.50 488.74,327.80"/>
    </edge>
    <edge id=":3500006700_15" function="internal">
        <lane id=":3500006700_15_0" index="0" speed="29.91" length="43.84" shape="486.84,342.72 491.91,335.11 499.16,326.26 507.93,317.66 517.55,310.81"/>
        <lane id=":3500006700_15_1" index="1" speed="29.34" length="43.84" shape="489.61,344.32 494.49,336.89 501.33,328.45 509.68,320.27 519.11,313.60"/>
    </edge>
    <edge id=":3500006700_17" function="internal">
        <lane id=":3500006700_17_0" index="0" speed="10.96" length="35.60" shape="489.61,344.32 495.99,336.27 503.04,332.85 510.44,334.32 517.85,340.97"/>
    </edge>
    <edge id=":3500006700_0_0" function="internal">
        <lane id=":3500006700_0_0_0" index="0" speed="60.00" length="8.73" shape="527.54,374.00 525.56,372.36 523.71,371.81 521.87,371.26 519.93,369.59"/>
        <lane id=":3500006700_0_0_1" index="1" speed="60.00" length="8.73" shape="530.03,371.99 528.06,370.35 526.21,369.82 524.38,369.27 522.45,367.61"/>
        <lane id=":3500006700_0_0_2" index="2" speed="60.00" length="8.73" shape="532.51,369.97 530.55,368.35 528.72,367.82 526.89,367.29 524.97,365.64"/>
        <lane id=":3500006700_0_0_3" index="3" speed="60.00" length="8.73" shape="534.99,367.95 533.05,366.35 531.22,365.83 529.40,365.30 527.49,363.67"/>
        <lane id=":3500006700_0_0_4" index="4" speed="60.00" length="8.73" shape="534.99,367.95 530.01,361.70"/>
    </edge>
    <edge id=":3500006700_0_5" function="internal">
        <lane id=":3500006700_0_5_0" index="0" speed="60.00" length="7.85" shape="540.09,353.81 544.93,359.88"/>
        <lane id=":3500006700_0_5_1" index="1" speed="60.00" length="7.85" shape="537.57,355.78 542.45,361.90"/>
        <lane id=":3500006700_0_5_2" index="2" speed="60.00" length="7.85" shape="535.05,357.75 539.96,363.92"/>
        <lane id=":3500006700_0_5_3" index="3" speed="60.00" length="7.85" shape="532.53,359.72 537.48,365.93"/>
    </edge>
    <edge id=":3500006700_1_0" function="internal">
        <lane id=":3500006700_1_0_0" index="0" speed="50.00" length="0.27" shape="553.65,312.63 553.45,312.75"/>
        <lane id=":3500006700_1_0_1" index="1" speed="50.00" length="0.27" shape="552.11,309.83 551.89,309.95"/>
        <lane id=":3500006700_1_0_2" index="2" speed="50.00" length="0.27" shape="550.56,307.03 550.33,307.16"/>
        <lane id=":3500006700_1_0_3" index="3" speed="50.00" length="0.27" shape="549.02,304.23 548.77,304.37"/>
        <lane id=":3500006700_1_0_4" index="4" speed="50.00" length="0.27" shape="547.48,301.42 547.21,301.57"/>
    </edge>
    <edge id=":3500006700_1_5" function="internal">
        <lane id=":3500006700_1_5_0" index="0" speed="50.00" length="0.34" shape="542.53,293.19 542.84,293.02"/>
        <lane id=":3500006700_1_5_1" index="1" speed="50.00" length="0.34" shape="544.09,295.99 544.39,295.82"/>
        <lane id=":3500006700_1_5_2" index="2" speed="50.00" length="0.34" shape="545.65,298.78 545.93,298.62"/>
    </edge>
    <edge id=":3500006700_2_0" function="internal">
        <lane id=":3500006700_2_0_0" index="0" speed="60.00" length="8.00" shape="456.97,316.15 449.46,313.40"/>
        <lane id=":3500006700_2_0_1" index="1" speed="60.00" length="8.00" shape="458.07,313.15 450.56,310.39"/>
        <lane id=":3500006700_2_0_2" index="2" speed="60.00" length="8.00" shape="459.17,310.14 451.66,307.39"/>
    </edge>
    <edge id=":3500006700_2_3" function="internal">
        <lane id=":3500006700_2_3_0" index="0" speed="60.00" length="8.60" shape="454.97,298.37 457.45,298.75 459.28,298.25 461.10,297.75 463.58,298.12"/>
        <lane id=":3500006700_2_3_1" index="1" speed="60.00" length="8.60" shape="453.87,301.38 456.35,301.76 458.17,301.25 460.00,300.75 462.48,301.13"/>
        <lane id=":3500006700_2_3_2" index="2" speed="60.00" length="8.60" shape="452.77,304.38 455.25,304.76 457.07,304.26 458.90,303.75 461.38,304.13"/>
        <lane id=":3500006700_2_3_3" index="3" speed="60.00" length="8.60" shape="452.77,304.38 460.28,307.14"/>
    </edge>
    <edge id=":3500006700_3_0" function="internal">
        <lane id=":3500006700_3_0_0" index="0" speed="3.65" length="4.67" shape="479.30,368.58 478.01,369.22 477.11,369.17 476.62,368.42 476.53,366.98"/>
    </edge>
    <edge id=":3500006800_0" function="internal">
        <lane id=":3500006800_0_0" index="0" speed="6.51" length="9.03" shape="2336.97,435.96 2334.52,435.57 2332.54,436.06 2331.02,437.42 2329.97,439.66"/>
    </edge>
    <edge id=":3500006800_1" function="internal">
        <lane id=":3500006800_1_0" index="0" speed="50.00" length="14.40" shape="2336.97,435.96 2323.20,431.72"/>
        <lane id=":3500006800_1_1" index="1" speed="50.00" length="14.40" shape="2337.91,432.90 2324.14,428.67"/>
        <lane id=":3500006800_1_2" index="2" speed="50.00" length="14.40" shape="2338.85,429.84 2325.09,425.61"/>
        <lane id=":3500006800_1_3" index="3" speed="50.00" length="14.40" shape="2339.79,426.78 2326.03,422.55"/>
    </edge>
    <edge id=":3500006800_5" function="internal">
        <lane id=":3500006800_5_0" index="0" speed="50.00" length="14.40" shape="2328.85,413.37 2342.61,417.61"/>
        <lane id=":3500006800_5_1" index="1" speed="50.00" length="14.40" shape="2327.91,416.43 2341.67,420.66"/>
        <lane id=":3500006800_5_2" index="2" speed="50.00" length="14.40" shape="2326.97,419.49 2340.73,423.72"/>
    </edge>
    <edge id=":3500006800_8" function="internal">
        <lane id=":3500006800_8_0" index="0" speed="6.51" length="9.03" shape="2326.91,438.72 2327.30,436.28 2326.81,434.30 2325.44,432.78 2323.20,431.72"/>
    </edge>
    <edge id=":3500006800_0_0" function="internal">
        <lane id=":3500006800_0_0_0" index="0" speed="55.00" length="7.92" shape="2381.77,446.70 2379.62,446.37 2378.04,446.95 2376.44,447.57 2374.23,447.42"/>
        <lane id=":3500006800_0_0_1" index="1" speed="55.00" length="7.92" shape="2382.97,443.74 2380.75,443.38 2379.11,443.93 2377.46,444.54 2375.17,444.36"/>
        <lane id=":3500006800_0_0_2" index="2" speed="55.00" length="7.92" shape="2384.17,440.77 2381.88,440.38 2380.18,440.91 2378.47,441.50 2376.11,441.30"/>
        <lane id=":3500006800_0_0_3" index="3" speed="55.00" length="7.92" shape="2384.17,440.77 2377.05,438.24"/>
    </edge>
    <edge id=":3500006800_0_4" function="internal">