<connections>
   <connection from="3500006301_0i" to="3500006301_3o" fromLane="0" toLane="0"/>
   <connection from="3500006301_0i" to="3500006301_2o" fromLane="0" toLane="0"/>
   <connection from="3500006301_0i" to="3500006301_2o" fromLane="1" toLane="1"/>
   <connection from="3500006301_0i" to="3500006301_2o" fromLane="2" toLane="2"/>
   <connection from="3500006301_0i" to="3500006301_1o" fromLane="3" toLane="1"/>
   <connection from="3500006301_0i" to="3500006301_0o" fromLane="3" toLane="2"/>
   <connection from="3500006301_1i" to="3500006301_0o" fromLane="0" toLane="0"/>
   <connection from="3500006301_1i" to="3500006301_3o" fromLane="1" toLane="0"/>
   <connection from="3500006301_1i" to="3500006301_2o" fromLane="2" toLane="2"/>
   <connection from="3500006301_2i" to="3500006301_1o" fromLane="0" toLane="0"/>
   <connection from="3500006301_2i" to="3500006301_0o" fromLane="1" toLane="1"/>
   <connection from="3500006301_2i" to="3500006301_0o" fromLane="2" toLane="2"/>
   
   <connection from="3500006600_0i" to="3500006600_3o" fromLane="0" toLane="0"/>
   <connection from="3500006600_0i" to="3500006600_2o" fromLane="0" toLane="0"/>
   <connection from="3500006600_0i" to="3500006600_2o" fromLane="1" toLane="1"/>
   <connection from="3500006600_0i" to="3500006600_2o" fromLane="2" toLane="2"/>
   <connection from="3500006600_0i" to="3500006600_1o" fromLane="3" toLane="2"/>
   <connection from="3500006600_0i" to="3500006600_0o" fromLane="3" toLane="2"/>
   <connection from="3500006600_1i" to="3500006600_3o" fromLane="0" toLane="0"/>
   <connection from="3500006600_1i" to="3500006600_3o" fromLane="1" toLane="1"/>
   <connection from="3500006600_1i" to="3500006600_2o" fromLane="1" toLane="2"/>
   <connection from="3500006600_1i" to="3500006600_2o" fromLane="2" toLane="1"/>
   <connection from="3500006600_1i" to="3500006600_1o" fromLane="2" toLane="2"/>
   <connection from="3500006600_2i" to="3500006600_1o" fromLane="0" toLane="0"/>
   <connection from="3500006600_2i" to="3500006600_0o" fromLane="1" toLane="0"/>
   <connection from="3500006600_2i" to="3500006600_0o" fromLane="2" toLane="1"/>
   <connection from="3500006600_2i" to="3500006600_0o" fromLane="3" toLane="2"/>
   <connection from="3500006600_2i" to="3500006600_3o" fromLane="4" toLane="1"/>
   <connection from="3500006600_2i" to="3500006600_2o" fromLane="4" toLane="2"/>
   <connection from="3500006600_3i" to="3500006600_2o" fromLane="0" toLane="0"/>
   <connection from="3500006600_3i" to="3500006600_1o" fromLane="1" toLane="1"/>
   <connection from="3500006600_3i" to="3500006600_1o" fromLane="2" toLane="2"/>
   <connection from="3500006600_3i" to="3500006600_0o" fromLane="3" toLane="2"/>
   <connection from="3500006600_3i" to="3500006600_3o" fromLane="3" toLane="1"/>
   
   <connection from="3500006650_0i" to="3500006650_2o" fromLane="0" toLane="0"/>
   <connection from="3500006650_0i" to="3500006650_2o" fromLane="1" toLane="1"/>
   <connection from="3500006650_0i" to="3500006650_2o" fromLane="2" toLane="2"/>
   <connection from="3500006650_0i" to="3500006650_1o" fromLane="3" toLane="2"/>
   <connection from="3500006650_1i" to="3500006650_0o" fromLane="0" toLane="0"/>
   <connection from="3500006650_1i" to="3500006650_2o" fromLane="1" toLane="2"/>
   <connection from="3500006650_1i" to="3500006650_2o" fromLane="2" toLane="1"/>
   <connection from="3500006650_2i" to="3500006650_1o" fromLane="0" toLane="0"/>
   <connection from="3500006650_2i" to="3500006650_0o" fromLane="0" toLane="0"/>
   <connection from="3500006650_2i" to="3500006650_0o" fromLane="1" toLane="1"/>
   <connection from="3500006650_2i" to="3500006650_0o" fromLane="2" toLane="2"/>
   
   <connection from="3500006660_0i" to="3500006660_2o" fromLane="0" toLane="0"/>
   <connection from="3500006660_0i" to="3500006660_2o" fromLane="1" toLane="1"/>
   <connection from="3500006660_0i" to="3500006660_2o" fromLane="2" toLane="2"/>
   <connection from="3500006660_0i" to="3500006660_1o" fromLane="3" toLane="0"/>
   <connection from="3500006660_1i" to="3500006660_0o" fromLane="0" toLane="0"/>
   <connection from="3500006660_1i" to="3500006660_2o" fromLane="0" toLane="2"/>
   <connection from="3500006660_2i" to="3500006660_1o" fromLane="0" toLane="0"/>
   <connection from="3500006660_2i" to="3500006660_0o" fromLane="0" toLane="0"/>
   <connection from="3500006660_2i" to="3500006660_0o" fromLane="1" toLane="1"/>
   <connection from="3500006660_2i" to="3500006660_0o" fromLane="2" toLane="2"/>
   
   <connection from="3500006700_0i" to="3500006700_3o" fromLane="0" toLane="0"/>
   <connection from="3500006700_0i" to="3500006700_2o" fromLane="1" toLane="1"/>
   <connection from="3500006700_0i" to="3500006700_2o" fromLane="2" toLane="2"/>
   <connection from="3500006700_0i" to="3500006700_1o" fromLane="3" toLane="2"/>
   <connection from="3500006700_0i" to="3500006700_1o" fromLane="4" toLane="1"/>
   <connection from="3500006700_1i" to="3500006700_0o" fromLane="0" toLane="0"/>
   <connection from="3500006700_1i" to="3500006700_0o" fromLane="1" toLane="1"/>
   <connection from="3500006700_1i" to="3500006700_3o" fromLane="2" toLane="1"/>
   <connection from="3500006700_1i" to="3500006700_2o" fromLane="3" toLane="2"/>
   <connection from="3500006700_1i" to="3500006700_2o" fromLane="4" toLane="1"/>
   <connection from="3500006700_2i" to="3500006700_1o" fromLane="0" toLane="0"/>
   <connection from="3500006700_2i" to="3500006700_0o" fromLane="1" toLane="1"/>
   <connection from="3500006700_2i" to="3500006700_0o" fromLane="2" toLane="2"/>
   <connection from="3500006700_2i" to="3500006700_0o" fromLane="3" toLane="3"/>
   <connection from="3500006700_3i" to="3500006700_2o" fromLane="0" toLane="0"/>
   <connection from="3500006700_3i" to="3500006700_1o" fromLane="0" toLane="1"/>
   <connection from="3500006700_3i" to="3500006700_1o" fromLane="1" toLane="2"/>
   <connection from="3500006700_3i" to="3500006700_0o" fromLane="1" toLane="3"/>
   
   <connection from="3500006800_0i" to="3500006800_2o" fromLane="0" toLane="0"/>
   <connection from="3500006800_0i" to="3500006800_1o" fromLane="0" toLane="0"/>
   <connection from="3500006800_0i" to="3500006800_1o" fromLane="1" toLane="1"/>
   <connection from="3500006800_0i" to="3500006800_1o" fromLane="2" toLane="2"/>
   <connection from="3500006800_0i" to="3500006800_1o" fromLane="3" toLane="3"/>
   <connection from="3500006800_1i" to="3500006800_0o" fromLane="0" toLane="0"/>
   <connection from="3500006800_1i" to="3500006800_0o" fromLane="1" toLane="1"/>
   <connection from="3500006800_1i" to="3500006800_0o" fromLane="2" toLane="2"/>
   <connection from="3500006800_2i" to="3500006800_1o" fromLane="0" toLane="0"/>
   
   <connection from="3500006900_0i" to="3500006900_2o" fromLane="0" toLane="0"/>
   <connection from="3500006900_1i" to="3500006900_0o" fromLane="0" toLane="0"/>
   <connection from="3500006900_1i" to="3500006900_2o" fromLane="0" toLane="0"/>
   <connection from="3500006900_1i" to="3500006900_2o" fromLane="1" toLane="1"/>
   <connection from="3500006900_1i" to="3500006900_2o" fromLane="2" toLane="2"/>
   <connection from="3500006900_2i" to="3500006900_1o" fromLane="0" toLane="0"/>
   <connection from="3500006900_2i" to="3500006900_1o" fromLane="1" toLane="1"/>
   <connection from="3500006900_2i" to="3500006900_1o" fromLane="2" toLane="2"/>
   
   <connection from="3500006901_0i" to="3500006901_2o" fromLane="0" toLane="0"/>
   <connection from="3500006901_0i" to="3500006901_2o" fromLane="1" toLane="1"/>
   <connection from="3500006901_0i" to="3500006901_2o" fromLane="2" toLane="2"/>
   <connection from="3500006901_0i" to="3500006901_1o" fromLane="3" toLane="1"/>
   <connection from="3500006901_0i" to="3500006901_0o" fromLane="3" toLane="2"/>
   <connection from="3500006901_1i" to="3500006901_0o" fromLane="0" toLane="0"/>
   <connection from="3500006901_1i" to="3500006901_2o" fromLane="1" toLane="2"/>
   <connection from="3500006901_2i" to="3500006901_1o" fromLane="0" toLane="0"/>
   <connection from="3500006901_2i" to="3500006901_0o" fromLane="0" toLane="0"/>
   <connection from="3500006901_2i" to="3500006901_0o" fromLane="1" toLane="1"/>
   <connection from="3500006901_2i" to="3500006901_0o" fromLane="2" toLane="2"/>
   <connection from="3500006901_2i" to="3500006901_2o" fromLane="3" toLane="2"/>
   
   <connection from="3500007100_0i" to="3500007100_3o" fromLane="0" toLane="0"/>
   <connection from="3500007100_0i" to="3500007100_2o" fromLane="0" toLane="1"/>
   <connection from="3500007100_0i" to="3500007100_2o" fromLane="1" toLane="2"/>
   <connection from="3500007100_0i" to="3500007100_1o" fromLane="1" toLane="2"/>
   <connection from="3500007100_0i" to="3500007100_1o" fromLane="2" toLane="1"/>
   <connection from="3500007100_0i" to="3500007100_0o" fromLane="2" toLane="2"/>
   <connection from="3500007100_1i" to="3500007100_0o" fromLane="0" toLane="0"/>
   <connection from="3500007100_1i" to="3500007100_3o" fromLane="0" toLane="0"/>
   <connection from="3500007100_1i" to="3500007100_3o" fromLane="1" toLane="1"/>
   <connection from="3500007100_1i" to="3500007100_3o" fromLane="2" toLane="2"/>
   <connection from="3500007100_1i" to="3500007100_2o" fromLane="3" toLane="2"/>
   <connection from="3500007100_2i" to="3500007100_1o" fromLane="0" toLane="0"/>
   <connection from="3500007100_2i" to="3500007100_0o" fromLane="0" toLane="0"/>
   <connection from="3500007100_2i" to="3500007100_0o" fromLane="1" toLane="1"/>
   <connection from="3500007100_2i" to="3500007100_0o" fromLane="2" toLane="2"/>
   <connection from="3500007100_2i" to="3500007100_3o" fromLane="2" toLane="2"/>
   <connection from="3500007100_3i" to="3500007100_2o" fromLane="0" toLane="0"/>
   <connection from="3500007100_3i" to="3500007100_1o" fromLane="0" toLane="1"/>
   <connection from="3500007100_3i" to="3500007100_1o" fromLane="1" toLane="2"/>
   <connection from="3500007100_3i" to="3500007100_0o" fromLane="2" toLane="2"/>
   <connection from="3500007100_3i" to="3500007100_0o" fromLane="3" toLane="1"/>
   <connection from="3500007100_3i" to="3500007100_3o" fromLane="3" toLane="2"/>
   
   <connection from="3500007300_0i" to="3500007300_3o" fromLane="0" toLane="0"/>
   <connection from="3500007300_0i" to="3500007300_2o" fromLane="0" toLane="0"/>
   <connection from="3500007300_0i" to="3500007300_2o" fromLane="1" toLane="1"/>
   <connection from="3500007300_0i" to="3500007300_2o" fromLane="2" toLane="2"/>
   <connection from="3500007300_0i" to="3500007300_1o" fromLane="3" toLane="1"/>
   <connection from="3500007300_0i" to="3500007300_0o" fromLane="3" toLane="2"/>
   <connection from="3500007300_1i" to="3500007300_0o" fromLane="0" toLane="0"/>
   <connection from="3500007300_1i" to="3500007300_3o" fromLane="0" toLane="0"/>
   <connection from="3500007300_1i" to="3500007300_3o" fromLane="1" toLane="1"/>
   <connection from="3500007300_1i" to="3500007300_2o" fromLane="1" toLane="2"/>
   <connection from="3500007300_2i" to="3500007300_1o" fromLane="0" toLane="0"/>
   <connection from="3500007300_2i" to="3500007300_0o" fromLane="0" toLane="0"/>
   <connection from="3500007300_2i" to="3500007300_0o" fromLane="1" toLane="1"/>
   <connection from="3500007300_2i" to="3500007300_0o" fromLane="2" toLane="2"/>
   <connection from="3500007300_2i" to="3500007300_3o" fromLane="3" toLane="1"/>
   <connection from="3500007300_2i" to="3500007300_2o" fromLane="3" toLane="2"/>
   <connection from="3500007300_3i" to="3500007300_2o" fromLane="0" toLane="0"/>
   <connection from="3500007300_3i" to="3500007300_1o" fromLane="0" toLane="0"/>
   <connection from="3500007300_3i" to="3500007300_1o" fromLane="1" toLane="1"/>
   <connection from="3500007300_3i" to="3500007300_0o" fromLane="1" toLane="2"/>
   
   <connection from="3500007350_0i" to="3500007350_1o" fromLane="0" toLane="0"/>
   <connection from="3500007350_0i" to="3500007350_1o" fromLane="1" toLane="1"/>
   <connection from="3500007350_0i" to="3500007350_1o" fromLane="2" toLane="2"/>
   <connection from="3500007350_1i" to="3500007350_0o" fromLane="0" toLane="0"/>
   <connection from="3500007350_1i" to="3500007350_0o" fromLane="1" toLane="1"/>
   <connection from="3500007350_1i" to="3500007350_0o" fromLane="2" toLane="2"/>
   
   <connection from="3500007400_0i" to="3500007400_2o" fromLane="0" toLane="0"/>
   <connection from="3500007400_1i" to="3500007400_0o" fromLane="0" toLane="0"/>
   <connection from="3500007400_1i" to="3500007400_2o" fromLane="0" toLane="0"/>
   <connection from="3500007400_1i" to="3500007400_2o" fromLane="1" toLane="1"/>
   <connection from="3500007400_1i" to="3500007400_2o" fromLane="2" toLane="2"/>
   <connection from="3500007400_1i" to="3500007400_2o" fromLane="3" toLane="3"/>
   <connection from="3500007400_2i" to="3500007400_1o" fromLane="0" toLane="0"/>
   <connection from="3500007400_2i" to="3500007400_1o" fromLane="1" toLane="1"/>
   <connection from="3500007400_2i" to="3500007400_1o" fromLane="2" toLane="2"/>
   
   <connection from="3500007500_0i" to="3500007500_3o" fromLane="0" toLane="0"/>
   <connection from="3500007500_0i" to="3500007500_2o" fromLane="1" toLane="1"/>
   <connection from="3500007500_0i" to="3500007500_2o" fromLane="2" toLane="2"/>
   <connection from="3500007500_0i" to="3500007500_2o" fromLane="3" toLane="3"/>
   <connection from="3500007500_1i" to="3500007500_0o" fromLane="0" toLane="0"/>
   <connection from="3500007500_1i" to="3500007500_3o" fromLane="1" toLane="1"/>
   <connection from="3500007500_1i" to="3500007500_3o" fromLane="2" toLane="2"/>
   <connection from="3500007500_1i" to="3500007500_2o" fromLane="2" toLane="3"/>
   <connection from="3500007500_1i" to="3500007500_2o" fromLane="3" toLane="2"/>
   <connection from="3500007500_2i" to="3500007500_1o" fromLane="0" toLane="0"/>
   <connection from="3500007500_2i" to="3500007500_0o" fromLane="1" toLane="0"/>
   <connection from="3500007500_2i" to="3500007500_0o" fromLane="2" toLane="1"/>
   <connection from="3500007500_2i" to="3500007500_0o" fromLane="3" toLane="2"/>
   <connection from="3500007500_2i" to="3500007500_3o" fromLane="3" toLane="2"/>
   <connection from="3500007500_2i" to="3500007500_3o" fromLane="4" toLane="1"/>
   <connection from="3500007500_3i" to="3500007500_2o" fromLane="0" toLane="0"/>
   <connection from="3500007500_3i" to="3500007500_1o" fromLane="1" toLane="1"/>
   <connection from="3500007500_3i" to="3500007500_1o" fromLane="2" toLane="2"/>
   <connection from="3500007500_3i" to="3500007500_0o" fromLane="2" toLane="2"/>
   <connection from="3500007500_3i" to="3500007500_0o" fromLane="3" toLane="1"/>
   
   <connection from="3500007900_0i" to="3500007900_2o" fromLane="0" toLane="0"/>
   <connection from="3500007900_0i" to="3500007900_2o" fromLane="1" toLane="1"/>
   <connection from="3500007900_0i" to="3500007900_2o" fromLane="2" toLane="2"/>
   <connection from="3500007900_0i" to="3500007900_1o" fromLane="3" toLane="1"/>
   <connection from="3500007900_0i" to="3500007900_0o" fromLane="3" toLane="2"/>
   <connection from="3500007900_1i" to="3500007900_0o" fromLane="0" toLane="0"/>
   <connection from="3500007900_1i" to="3500007900_2o" fromLane="1" toLane="2"/>
   <connection from="3500007900_2i" to="3500007900_1o" fromLane="0" toLane="0"/>
   <connection from="3500007900_2i" to="3500007900_0o" fromLane="0" toLane="0"/>
   <connection from="3500007900_2i" to="3500007900_0o" fromLane="1" toLane="1"/>
   <connection from="3500007900_2i" to="3500007900_0o" fromLane="2" toLane="2"/>
   <connection from="3500007900_2i" to="3500007900_2o" fromLane="3" toLane="2"/>
   <connection from="3500007900_3i" to="3500007900_2o" fromLane="0" toLane="0"/>
   <connection from="3500007900_3i" to="3500007900_0o" fromLane="0" toLane="2"/>
   <connection from="3500007900_3i" to="3500007900_0o" fromLane="1" toLane="1"/>
   
   <connection from="3500008000_0i" to="3500008000_2o" fromLane="0" toLane="0"/>
   <connection from="3500008000_0i" to="3500008000_2o" fromLane="1" toLane="1"/>
   <connection from="3500008000_0i" to="3500008000_2o" fromLane="2" toLane="2"/>
   <connection from="3500008000_0i" to="3500008000_1o" fromLane="3" toLane="0"/>
   <connection from="3500008000_0i" to="3500008000_0o" fromLane="3" toLane="2"/>
   <connection from="3500008000_1i" to="3500008000_0o" fromLane="0" toLane="0"/>
   <connection from="3500008000_1i" to="3500008000_2o" fromLane="0" toLane="3"/>
   <connection from="3500008000_2i" to="3500008000_1o" fromLane="0" toLane="0"/>
   <connection from="3500008000_2i" to="3500008000_0o" fromLane="0" toLane="0"/>
   <connection from="3500008000_2i" to="3500008000_0o" fromLane="1" toLane="1"/>
   <connection from="3500008000_2i" to="3500008000_0o" fromLane="2" toLane="2"/>
   
   <connection from="3500051802_0i" to="3500051802_3o" fromLane="0" toLane="0"/>
   <connection from="3500051802_0i" to="3500051802_2o" fromLane="0" toLane="1"/>
   <connection from="3500051802_0i" to="3500051802_2o" fromLane="1" toLane="2"/>
   <connection from="3500051802_0i" to="3500051802_1o" fromLane="2" toLane="1"/>
   <connection from="3500051802_0i" to="3500051802_0o" fromLane="2" toLane="2"/>
   <connection from="3500051802_1i" to="3500051802_0o" fromLane="0" toLane="0"/>
   <connection from="3500051802_1i" to="3500051802_3o" fromLane="0" toLane="1"/>
   <connection from="3500051802_1i" to="3500051802_3o" fromLane="1" toLane="2"/>
   <connection from="3500051802_1i" to="3500051802_2o" fromLane="1" toLane="2"/>
   <connection from="3500051802_2i" to="3500051802_1o" fromLane="0" toLane="0"/>
   <connection from="3500051802_2i" to="3500051802_0o" fromLane="1" toLane="1"/>
   <connection from="3500051802_2i" to="3500051802_0o" fromLane="2" toLane="2"/>
   <connection from="3500051802_2i" to="3500051802_3o" fromLane="2" toLane="2"/>
   <connection from="3500051802_2i" to="3500051802_3o" fromLane="3" toLane="1"/>
   <connection from="3500051802_3i" to="3500051802_2o" fromLane="0" toLane="0"/>
   <connection from="3500051802_3i" to="3500051802_2o" fromLane="1" toLane="1"/>
   <connection from="3500051802_3i" to="3500051802_1o" fromLane="2" toLane="1"/>
   <connection from="3500051802_3i" to="3500051802_0o" fromLane="3" toLane="2"/>
   <connection from="3500051802_3i" to="3500051802_0o" fromLane="4" toLane="1"/>
   <connection from="3500051802_3i" to="3500051802_3o" fromLane="4" toLane="2"/>
   
   <connection from="3500051804_0i" to="3500051804_2o" fromLane="0" toLane="0"/>
   <connection from="3500051804_0i" to="3500051804_2o" fromLane="1" toLane="1"/>
   <connection from="3500051804_0i" to="3500051804_1o" fromLane="2" toLane="3"/>
   <connection from="3500051804_1i" to="3500051804_0o" fromLane="0" toLane="0"/>
   <connection from="3500051804_1i" to="3500051804_2o" fromLane="1" toLane="1"/>
   <connection from="3500051804_1i" to="3500051804_2o" fromLane="2" toLane="2"/>
   <connection from="3500051804_1i" to="3500051804_2o" fromLane="3" toLane="3"/>
   <connection from="3500051804_1i" to="3500051804_1o" fromLane="4" toLane="3"/>
   <connection from="3500051804_2i" to="3500051804_1o" fromLane="0" toLane="0"/>
   <connection from="3500051804_2i" to="3500051804_1o" fromLane="1" toLane="1"/>
   <connection from="3500051804_2i" to="3500051804_1o" fromLane="2" toLane="2"/>
   <connection from="3500051804_2i" to="3500051804_0o" fromLane="3" toLane="2"/>
   <connection from="3500051804_2i" to="3500051804_0o" fromLane="4" toLane="1"/>
   <connection from="3500051804_2i" to="3500051804_2o" fromLane="4" toLane="3"/>
   
   <connection from="3500058500_0i" to="3500058500_3o" fromLane="0" toLane="0"/>
   <connection from="3500058500_0i" to="3500058500_2o" fromLane="1" toLane="0"/>
   <connection from="3500058500_0i" to="3500058500_2o" fromLane="2" toLane="1"/>
   <connection from="3500058500_0i" to="3500058500_1o" fromLane="2" toLane="0"/>
   <connection from="3500058500_1i" to="3500058500_0o" fromLane="0" toLane="0"/>
   <connection from="3500058500_2i" to="3500058500_1o" fromLane="0" toLane="0"/>
   <connection from="3500058500_2i" to="3500058500_0o" fromLane="0" toLane="0"/>
   <connection from="3500058500_2i" to="3500058500_0o" fromLane="1" toLane="1"/>
   <connection from="3500058500_2i" to="3500058500_3o" fromLane="2" toLane="1"/>
   <connection from="3500058500_3i" to="3500058500_2o" fromLane="0" toLane="0"/>
   <connection from="3500058500_3i" to="3500058500_1o" fromLane="0" toLane="0"/>
   <connection from="3500058500_3i" to="3500058500_0o" fromLane="1" toLane="1"/>
   
   <connection from="3500058550_0i" to="3500058550_1o" fromLane="0" toLane="0"/>
   <connection from="3500058550_0i" to="3500058550_1o" fromLane="1" toLane="1"/>
   <connection from="3500058550_1i" to="3500058550_0o" fromLane="0" toLane="0"/>
   <connection from="3500058550_1i" to="3500058550_0o" fromLane="1" toLane="1"/>
   
   <connection from="3500058700_0i" to="3500058700_3o" fromLane="0" toLane="0"/>
   <connection from="3500058700_0i" to="3500058700_2o" fromLane="0" toLane="0"/>
   <connection from="3500058700_0i" to="3500058700_1o" fromLane="0" toLane="1"/>
   <connection from="3500058700_1i" to="3500058700_0o" fromLane="0" toLane="0"/>
   <connection from="3500058700_1i" to="3500058700_3o" fromLane="0" toLane="0"/>
   <connection from="3500058700_1i" to="3500058700_3o" fromLane="1" toLane="1"/>
   <connection from="3500058700_1i" to="3500058700_2o" fromLane="1" toLane="0"/>
   <connection from="3500058700_2i" to="3500058700_1o" fromLane="0" toLane="0"/>
   <connection from="3500058700_2i" to="3500058700_0o" fromLane="0" toLane="0"/>
   <connection from="3500058700_2i" to="3500058700_3o" fromLane="0" toLane="1"/>
   <connection from="3500058700_3i" to="3500058700_2o" fromLane="0" toLane="0"/>
   <connection from="3500058700_3i" to="3500058700_1o" fromLane="0" toLane="0"/>
   <connection from="3500058700_3i" to="3500058700_1o" fromLane="1" toLane="1"/>
   <connection from="3500058700_3i" to="3500058700_0o" fromLane="1" toLane="0"/>
   
   <connection from="3500058900_0i" to="3500058900_3o" fromLane="0" toLane="0"/>
   <connection from="3500058900_0i" to="3500058900_2o" fromLane="0" toLane="1"/>
   <connection from="3500058900_0i" to="3500058900_2o" fromLane="1" toLane="2"/>
   <connection from="3500058900_0i" to="3500058900_1o" fromLane="2" toLane="1"/>
   <connection from="3500058900_1i" to="3500058900_0o" fromLane="0" toLane="0"/>
   <connection from="3500058900_1i" to="3500058900_3o" fromLane="0" toLane="0"/>
   <connection from="3500058900_1i" to="3500058900_3o" fromLane="1" toLane="1"/>
   <connection from="3500058900_1i" to="3500058900_2o" fromLane="1" toLane="3"/>
   <connection from="3500058900_2i" to="3500058900_1o" fromLane="0" toLane="0"/>
   <connection from="3500058900_2i" to="3500058900_0o" fromLane="0" toLane="1"/>
   <connection from="3500058900_2i" to="3500058900_0o" fromLane="1" toLane="2"/>
   <connection from="3500058900_2i" to="3500058900_3o" fromLane="2" toLane="1"/>
   <connection from="3500058900_2i" to="3500058900_2o" fromLane="2" toLane="3"/>
   <connection from="3500058900_3i" to="3500058900_2o" fromLane="0" toLane="0"/>
   <connection from="3500058900_3i" to="3500058900_1o" fromLane="1" toLane="0"/>
   <connection from="3500058900_3i" to="3500058900_1o" fromLane="2" toLane="1"/>
   <connection from="3500058900_3i" to="3500058900_0o" fromLane="2" toLane="2"/>
   
   <connection from="3500059300_0i" to="3500059300_2o" fromLane="0" toLane="0"/>
   <connection from="3500059300_0i" to="3500059300_1o" fromLane="1" toLane="1"/>
   <connection from="3500059300_1i" to="3500059300_0o" fromLane="0" toLane="0"/>
   <connection from="3500059300_1i" to="3500059300_2o" fromLane="1" toLane="1"/>
   <connection from="3500059300_2i" to="3500059300_1o" fromLane="0" toLane="0"/>
   <connection from="3500059300_2i" to="3500059300_0o" fromLane="1" toLane="1"/>
   
   <connection from="3500059350_0i" to="3500059350_1o" fromLane="0" toLane="0"/>
   <connection from="3500059350_0i" to="3500059350_1o" fromLane="1" toLane="1"/>
   <connection from="3500059350_1i" to="3500059350_0o" fromLane="0" toLane="0"/>
   <connection from="3500059350_1i" to="3500059350_0o" fromLane="1" toLane="1"/>
   
   <connection from="3500059800_0i" to="3500059800_2o" fromLane="0" toLane="0"/>
   <connection from="3500059800_0i" to="3500059800_2o" fromLane="1" toLane="1"/>
   <connection from="3500059800_0i" to="3500059800_1o" fromLane="2" toLane="0"/>
   <connection from="3500059800_1i" to="3500059800_0o" fromLane="0" toLane="0"/>
   <connection from="3500059800_2i" to="3500059800_1o" fromLane="0" toLane="0"/>
   <connection from="3500059800_2i" to="3500059800_0o" fromLane="0" toLane="0"/>
   <connection from="3500059800_2i" to="3500059800_0o" fromLane="1" toLane="1"/>
   
   <connection from="3500059850_0i" to="3500059850_1o" fromLane="0" toLane="0"/>
   <connection from="3500059850_0i" to="3500059850_1o" fromLane="1" toLane="1"/>
   <connection from="3500059850_1i" to="3500059850_0o" fromLane="0" toLane="0"/>
   <connection from="3500059850_1i" to="3500059850_0o" fromLane="1" toLane="1"/>
   
   <connection from="3500060100_0i" to="3500060100_3o" fromLane="0" toLane="0"/>
   <connection from="3500060100_0i" to="3500060100_2o" fromLane="0" toLane="0"/>
   <connection from="3500060100_0i" to="3500060100_1o" fromLane="0" toLane="1"/>
   <connection from="3500060100_1i" to="3500060100_0o" fromLane="0" toLane="0"/>
   <connection from="3500060100_1i" to="3500060100_3o" fromLane="0" toLane="0"/>
   <connection from="3500060100_1i" to="3500060100_3o" fromLane="1" toLane="1"/>
   <connection from="3500060100_1i" to="3500060100_2o" fromLane="1" toLane="0"/>
   <connection from="3500060100_2i" to="3500060100_1o" fromLane="0" toLane="0"/>
   <connection from="3500060100_2i" to="3500060100_0o" fromLane="0" toLane="0"/>
   <connection from="3500060100_2i" to="3500060100_3o" fromLane="0" toLane="1"/>
   <connection from="3500060100_3i" to="3500060100_2o" fromLane="0" toLane="0"/>
   <connection from="3500060100_3i" to="3500060100_1o" fromLane="0" toLane="0"/>
   <connection from="3500060100_3i" to="3500060100_1o" fromLane="1" toLane="1"/>
   <connection from="3500060100_3i" to="3500060100_0o" fromLane="1" toLane="0"/>
   
   <connection from="3500060600_0i" to="3500060600_3o" fromLane="0" toLane="0"/>
   <connection from="3500060600_0i" to="3500060600_2o" fromLane="0" toLane="0"/>
   <connection from="3500060600_0i" to="3500060600_2o" fromLane="1" toLane="1"/>
   <connection from="3500060600_0i" to="3500060600_1o" fromLane="2" toLane="1"/>
   <connection from="3500060600_1i" to="3500060600_0o" fromLane="0" toLane="0"/>
   <connection from="3500060600_1i" to="3500060600_3o" fromLane="0" toLane="0"/>
   <connection from="3500060600_1i" to="3500060600_3o" fromLane="1" toLane="1"/>
   <connection from="3500060600_1i" to="3500060600_2o" fromLane="1" toLane="1"/>
   <connection from="3500060600_2i" to="3500060600_1o" fromLane="0" toLane="0"/>
   <connection from="3500060600_2i" to="3500060600_0o" fromLane="0" toLane="0"/>
   <connection from="3500060600_2i" to="3500060600_0o" fromLane="1" toLane="1"/>
   <connection from="3500060600_2i" to="3500060600_3o" fromLane="2" toLane="1"/>
   <connection from="3500060600_3i" to="3500060600_2o" fromLane="0" toLane="0"/>
   <connection from="3500060600_3i" to="3500060600_1o" fromLane="0" toLane="0"/>
   <connection from="3500060600_3i" to="3500060600_1o" fromLane="1" toLane="1"/>
   <connection from="3500060600_3i" to="3500060600_0o" fromLane="1" toLane="1"/>
   
   <connection from="3500060650_0i" to="3500060650_1o" fromLane="0" toLane="0"/>
   <connection from="3500060650_0i" to="3500060650_1o" fromLane="1" toLane="1"/>
   <connection from="3500060650_1i" to="3500060650_0o" fromLane="0" toLane="0"/>
   <connection from="3500060650_1i" to="3500060650_0o" fromLane="1" toLane="1"/>
   
   <connection from="3500060660_0i" to="3500060660_1o" fromLane="0" toLane="0"/>
   <connection from="3500060660_0i" to="3500060660_1o" fromLane="1" toLane="1"/>
   <connection from="3500060660_1i" to="3500060660_0o" fromLane="0" toLane="0"/>
   <connection from="3500060660_1i" to="3500060660_0o" fromLane="1" toLane="1"/>
   
   <connection from="3500060800_0i" to="3500060800_2o" fromLane="0" toLane="0"/>
   <connection from="3500060800_0i" to="3500060800_1o" fromLane="0" toLane="0"/>
   <connection from="3500060800_0i" to="3500060800_1o" fromLane="1" toLane="1"/>
   <connection from="3500060800_0i" to="3500060800_1o" fromLane="2" toLane="2"/>
   <connection from="3500060800_1i" to="3500060800_0o" fromLane="0" toLane="0"/>
   <connection from="3500060800_1i" to="3500060800_0o" fromLane="1" toLane="1"/>
   <connection from="3500060800_1i" to="3500060800_2o" fromLane="2" toLane="0"/>
   <connection from="3500060800_1i" to="3500060800_1o" fromLane="2" toLane="2"/>
   <connection from="3500060800_2i" to="3500060800_1o" fromLane="0" toLane="0"/>
   <connection from="3500060800_2i" to="3500060800_0o" fromLane="0" toLane="2"/>
   
   <connection from="3500060850_0i" to="3500060850_1o" fromLane="0" toLane="0"/>
   <connection from="3500060850_0i" to="3500060850_1o" fromLane="1" toLane="1"/>
   <connection from="3500060850_0i" to="3500060850_1o" fromLane="2" toLane="2"/>
   <connection from="3500060850_1i" to="3500060850_0o" fromLane="0" toLane="0"/>
   <connection from="3500060850_1i" to="3500060850_0o" fromLane="1" toLane="1"/>
   <connection from="3500060850_1i" to="3500060850_0o" fromLane="2" toLane="2"/>
   
   <connection from="3500060860_0i" to="3500060860_1o" fromLane="0" toLane="0"/>
   <connection from="3500060860_0i" to="3500060860_1o" fromLane="1" toLane="1"/>
   <connection from="3500060860_0i" to="3500060860_1o" fromLane="2" toLane="2"/>
   <connection from="3500060860_1i" to="3500060860_0o" fromLane="0" toLane="0"/>
   <connection from="3500060860_1i" to="3500060860_0o" fromLane="1" toLane="1"/>
   <connection from="3500060860_1i" to="3500060860_0o" fromLane="2" toLane="2"/>
   
   <connection from="3500062100_0i" to="3500062100_3o" fromLane="0" toLane="0"/>