<?xml version="1.0" encoding="UTF-8"?>

<!-- generated on 2023-07-11 15:43:25 by Eclipse SUMO netconvert Version 1.15.0
<configuration xmlns:xsi="http://www.w3.org/2001/XMLSchema-instance" xsi:noNamespaceSchemaLocation="http://sumo.dlr.de/xsd/netconvertConfiguration.xsd">

    <input>
        <node-files value="C:/Users/FILAB/Desktop/arrange/5_code/SUMO/sumo_DT/test_folder/test25.nod.xml"/>
        <edge-files value="C:/Users/FILAB/Desktop/arrange/5_code/SUMO/sumo_DT/test_folder/test25.edg.xml"/>
        <connection-files value="C:/Users/FILAB/Desktop/arrange/5_code/SUMO/sumo_DT/test_folder/test25.con.xml"/>
        <tllogic-files value="C:/Users/FILAB/Desktop/arrange/5_code/SUMO/sumo_DT/test_folder/test25.tll.xml"/>
    </input>

    <output>
        <output-file value="C:/Users/FILAB/Desktop/arrange/5_code/SUMO/sumo_DT/test_folder/test25.net.xml"/>
    </output>

    <report>
        <verbose value="true"/>
    </report>

</configuration>
-->

<net version="1.9" junctionCornerDetail="5" limitTurnSpeed="5.50" xmlns:xsi="http://www.w3.org/2001/XMLSchema-instance" xsi:noNamespaceSchemaLocation="http://sumo.dlr.de/xsd/net_file.xsd">

    <location netOffset="-75.00,-75.00" convBoundary="0.00,0.00,450.00,450.00" origBoundary="75.00,75.00,525.00,525.00" projParameter="!"/>

    <edge id=":test_00_0" function="internal">
        <lane id=":test_00_0_0" index="0" speed="6.51" length="9.03" shape="20.20,35.40 19.85,32.95 18.80,31.20 17.05,30.15 14.60,29.80"/>
    </edge>
    <edge id=":test_00_1" function="internal">
        <lane id=":test_00_1_0" index="0" speed="25.00" length="20.80" shape="20.20,35.40 20.20,14.60"/>
        <lane id=":test_00_1_1" index="1" speed="25.00" length="20.80" shape="23.40,35.40 23.40,14.60"/>
    </edge>
    <edge id=":test_00_3" function="internal">
        <lane id=":test_00_3_0" index="0" speed="9.26" length="19.35" shape="23.40,35.40 24.15,30.15 26.40,26.40 30.15,24.15 35.40,23.40"/>
    </edge>
    <edge id=":test_00_4" function="internal">
        <lane id=":test_00_4_0" index="0" speed="6.51" length="9.03" shape="35.40,29.80 32.95,30.15 31.20,31.20 30.15,32.95 29.80,35.40"/>
    </edge>
    <edge id=":test_00_5" function="internal">
        <lane id=":test_00_5_0" index="0" speed="25.00" length="20.80" shape="35.40,29.80 14.60,29.80"/>
        <lane id=":test_00_5_1" index="1" speed="25.00" length="20.80" shape="35.40,26.60 14.60,26.60"/>
    </edge>
    <edge id=":test_00_7" function="internal">
        <lane id=":test_00_7_0" index="0" speed="9.26" length="19.35" shape="35.40,26.60 30.15,25.85 26.40,23.60 24.15,19.85 23.40,14.60"/>
    </edge>
    <edge id=":test_00_8" function="internal">
        <lane id=":test_00_8_0" index="0" speed="6.51" length="9.03" shape="29.80,14.60 30.15,17.05 31.20,18.80 32.95,19.85 35.40,20.20"/>
    </edge>
    <edge id=":test_00_9" function="internal">
        <lane id=":test_00_9_0" index="0" speed="25.00" length="20.80" shape="29.80,14.60 29.80,35.40"/>
        <lane id=":test_00_9_1" index="1" speed="25.00" length="20.80" shape="26.60,14.60 26.60,35.40"/>
    </edge>
    <edge id=":test_00_11" function="internal">
        <lane id=":test_00_11_0" index="0" speed="9.26" length="19.35" shape="26.60,14.60 25.85,19.85 23.60,23.60 19.85,25.85 14.60,26.60"/>
    </edge>
    <edge id=":test_00_12" function="internal">
        <lane id=":test_00_12_0" index="0" speed="6.51" length="9.03" shape="14.60,20.20 17.05,19.85 18.80,18.80 19.85,17.05 20.20,14.60"/>
    </edge>
    <edge id=":test_00_13" function="internal">
        <lane id=":test_00_13_0" index="0" speed="25.00" length="20.80" shape="14.60,20.20 35.40,20.20"/>
        <lane id=":test_00_13_1" index="1" speed="25.00" length="20.80" shape="14.60,23.40 35.40,23.40"/>
    </edge>
    <edge id=":test_00_15" function="internal">
        <lane id=":test_00_15_0" index="0" speed="9.26" length="19.35" shape="14.60,23.40 19.85,24.15 23.60,26.40 25.85,30.15 26.60,35.40"/>
    </edge>
    <edge id=":test_00_0_0" function="internal">
        <lane id=":test_00_0_0_0" index="0" speed="42.50" length="0.10" shape="20.20,50.00 20.20,50.00"/>
        <lane id=":test_00_0_0_1" index="1" speed="42.50" length="0.10" shape="23.40,50.00 23.40,50.00"/>
    </edge>
    <edge id=":test_00_0_2" function="internal">
        <lane id=":test_00_0_2_0" index="0" speed="42.50" length="0.10" shape="29.80,50.00 29.80,50.00"/>
        <lane id=":test_00_0_2_1" index="1" speed="42.50" length="0.10" shape="26.60,50.00 26.60,50.00"/>
    </edge>
    <edge id=":test_00_1_0" function="internal">
        <lane id=":test_00_1_0_0" index="0" speed="42.50" length="0.10" shape="50.00,29.80 50.00,29.80"/>
        <lane id=":test_00_1_0_1" index="1" speed="42.50" length="0.10" shape="50.00,26.60 50.00,26.60"/>
    </edge>
    <edge id=":test_00_1_2" function="internal">
        <lane id=":test_00_1_2_0" index="0" speed="42.50" length="0.10" shape="50.00,20.20 50.00,20.20"/>
        <lane id=":test_00_1_2_1" index="1" speed="42.50" length="0.10" shape="50.00,23.40 50.00,23.40"/>
    </edge>
    <edge id=":test_00_2_0" function="internal">
        <lane id=":test_00_2_0_0" index="0" speed="3.65" length="4.67" shape="23.40,0.00 24.20,-1.20 25.00,-1.60 25.80,-1.20 26.60,0.00"/>
    </edge>
    <edge id=":test_00_3_0" function="internal">
        <lane id=":test_00_3_0_0" index="0" speed="3.65" length="4.67" shape="0.00,26.60 -1.20,25.80 -1.60,25.00 -1.20,24.20 0.00,23.40"/>
    </edge>
    <edge id=":test_01_0" function="internal">
        <lane id=":test_01_0_0" index="0" speed="6.51" length="9.03" shape="20.20,135.40 19.85,132.95 18.80,131.20 17.05,130.15 14.60,129.80"/>
    </edge>
    <edge id=":test_01_1" function="internal">
        <lane id=":test_01_1_0" index="0" speed="25.00" length="20.80" shape="20.20,135.40 20.20,114.60"/>
        <lane id=":test_01_1_1" index="1" speed="25.00" length="20.80" shape="23.40,135.40 23.40,114.60"/>
    </edge>
    <edge id=":test_01_3" function="internal">
        <lane id=":test_01_3_0" index="0" speed="9.26" length="19.35" shape="23.40,135.40 24.15,130.15 26.40,126.40 30.15,124.15 35.40,123.40"/>
    </edge>
    <edge id=":test_01_4" function="internal">
        <lane id=":test_01_4_0" index="0" speed="6.51" length="9.03" shape="35.40,129.80 32.95,130.15 31.20,131.20 30.15,132.95 29.80,135.40"/>
    </edge>
    <edge id=":test_01_5" function="internal">
        <lane id=":test_01_5_0" index="0" speed="25.00" length="20.80" shape="35.40,129.80 14.60,129.80"/>
        <lane id=":test_01_5_1" index="1" speed="25.00" length="20.80" shape="35.40,126.60 14.60,126.60"/>
    </edge>
    <edge id=":test_01_7" function="internal">
        <lane id=":test_01_7_0" index="0" speed="9.26" length="19.35" shape="35.40,126.60 30.15,125.85 26.40,123.60 24.15,119.85 23.40,114.60"/>
    </edge>
    <edge id=":test_01_8" function="internal">
        <lane id=":test_01_8_0" index="0" speed="6.51" length="9.03" shape="29.80,114.60 30.15,117.05 31.20,118.80 32.95,119.85 35.40,120.20"/>
    </edge>
    <edge id=":test_01_9" function="internal">
        <lane id=":test_01_9_0" index="0" speed="25.00" length="20.80" shape="29.80,114.60 29.80,135.40"/>
        <lane id=":test_01_9_1" index="1" speed="25.00" length="20.80" shape="26.60,114.60 26.60,135.40"/>
    </edge>
    <edge id=":test_01_11" function="internal">
        <lane id=":test_01_11_0" index="0" speed="9.26" length="19.35" shape="26.60,114.60 25.85,119.85 23.60,123.60 19.85,125.85 14.60,126.60"/>
    </edge>
    <edge id=":test_01_12" function="internal">
        <lane id=":test_01_12_0" index="0" speed="6.51" length="9.03" shape="14.60,120.20 17.05,119.85 18.80,118.80 19.85,117.05 20.20,114.60"/>
    </edge>
    <edge id=":test_01_13" function="internal">
        <lane id=":test_01_13_0" index="0" speed="25.00" length="20.80" shape="14.60,120.20 35.40,120.20"/>
        <lane id=":test_01_13_1" index="1" speed="25.00" length="20.80" shape="14.60,123.40 35.40,123.40"/>
    </edge>
    <edge id=":test_01_15" function="internal">
        <lane id=":test_01_15_0" index="0" speed="9.26" length="19.35" shape="14.60,123.40 19.85,124.15 23.60,126.40 25.85,130.15 26.60,135.40"/>
    </edge>
    <edge id=":test_01_0_0" function="internal">
        <lane id=":test_01_0_0_0" index="0" speed="42.50" length="0.10" shape="20.20,150.00 20.20,150.00"/>
        <lane id=":test_01_0_0_1" index="1" speed="42.50" length="0.10" shape="23.40,150.00 23.40,150.00"/>
    </edge>
    <edge id=":test_01_0_2" function="internal">
        <lane id=":test_01_0_2_0" index="0" speed="42.50" length="0.10" shape="29.80,150.00 29.80,150.00"/>
        <lane id=":test_01_0_2_1" index="1" speed="42.50" length="0.10" shape="26.60,150.00 26.60,150.00"/>
    </edge>
    <edge id=":test_01_1_0" function="internal">
        <lane id=":test_01_1_0_0" index="0" speed="42.50" length="0.10" shape="50.00,129.80 50.00,129.80"/>
        <lane id=":test_01_1_0_1" index="1" speed="42.50" length="0.10" shape="50.00,126.60 50.00,126.60"/>
    </edge>
    <edge id=":test_01_1_2" function="internal">
        <lane id=":test_01_1_2_0" index="0" speed="42.50" length="0.10" shape="50.00,120.20 50.00,120.20"/>
        <lane id=":test_01_1_2_1" index="1" speed="42.50" length="0.10" shape="50.00,123.40 50.00,123.40"/>
    </edge>
    <edge id=":test_01_2_0" function="internal">
        <lane id=":test_01_2_0_0" index="0" speed="42.50" length="0.10" shape="20.20,100.00 20.20,100.00"/>
        <lane id=":test_01_2_0_1" index="1" speed="42.50" length="0.10" shape="23.40,100.00 23.40,100.00"/>
    </edge>
    <edge id=":test_01_2_2" function="internal">
        <lane id=":test_01_2_2_0" index="0" speed="42.50" length="0.10" shape="29.80,100.00 29.80,100.00"/>
        <lane id=":test_01_2_2_1" index="1" speed="42.50" length="0.10" shape="26.60,100.00 26.60,100.00"/>
    </edge>
    <edge id=":test_01_3_0" function="internal">
        <lane id=":test_01_3_0_0" index="0" speed="3.65" length="4.67" shape="0.00,126.60 -1.20,125.80 -1.60,125.00 -1.20,124.20 0.00,123.40"/>
    </edge>
    <edge id=":test_02_0" function="internal">
        <lane id=":test_02_0_0" index="0" speed="6.51" length="9.03" shape="20.20,235.40 19.85,232.95 18.80,231.20 17.05,230.15 14.60,229.80"/>
    </edge>
    <edge id=":test_02_1" function="internal">
        <lane id=":test_02_1_0" index="0" speed="25.00" length="20.80" shape="20.20,235.40 20.20,214.60"/>
        <lane id=":test_02_1_1" index="1" speed="25.00" length="20.80" shape="23.40,235.40 23.40,214.60"/>
    </edge>
    <edge id=":test_02_3" function="internal">
        <lane id=":test_02_3_0" index="0" speed="9.26" length="19.35" shape="23.40,235.40 24.15,230.15 26.40,226.40 30.15,224.15 35.40,223.40"/>
    </edge>
    <edge id=":test_02_4" function="internal">
        <lane id=":test_02_4_0" index="0" speed="6.51" length="9.03" shape="35.40,229.80 32.95,230.15 31.20,231.20 30.15,232.95 29.80,235.40"/>
    </edge>
    <edge id=":test_02_5" function="internal">
        <lane id=":test_02_5_0" index="0" speed="25.00" length="20.80" shape="35.40,229.80 14.60,229.80"/>
        <lane id=":test_02_5_1" index="1" speed="25.00" length="20.80" shape="35.40,226.60 14.60,226.60"/>
    </edge>
    <edge id=":test_02_7" function="internal">
        <lane id=":test_02_7_0" index="0" speed="9.26" length="19.35" shape="35.40,226.60 30.15,225.85 26.40,223.60 24.15,219.85 23.40,214.60"/>
    </edge>
    <edge id=":test_02_8" function="internal">
        <lane id=":test_02_8_0" index="0" speed="6.51" length="9.03" shape="29.80,214.60 30.15,217.05 31.20,218.80 32.95,219.85 35.40,220.20"/>
    </edge>
    <edge id=":test_02_9" function="internal">
        <lane id=":test_02_9_0" index="0" speed="25.00" length="20.80" shape="29.80,214.60 29.80,235.40"/>
        <lane id=":test_02_9_1" index="1" speed="25.00" length="20.80" shape="26.60,214.60 26.60,235.40"/>
    </edge>
    <edge id=":test_02_11" function="internal">
        <lane id=":test_02_11_0" index="0" speed="9.26" length="19.35" shape="26.60,214.60 25.85,219.85 23.60,223.60 19.85,225.85 14.60,226.60"/>
    </edge>
    <edge id=":test_02_12" function="internal">
        <lane id=":test_02_12_0" index="0" speed="6.51" length="9.03" shape="14.60,220.20 17.05,219.85 18.80,218.80 19.85,217.05 20.20,214.60"/>
    </edge>
    <edge id=":test_02_13" function="internal">
        <lane id=":test_02_13_0" index="0" speed="25.00" length="20.80" shape="14.60,220.20 35.40,220.20"/>
        <lane id=":test_02_13_1" index="1" speed="25.00" length="20.80" shape="14.60,223.40 35.40,223.40"/>
    </edge>
    <edge id=":test_02_15" function="internal">
        <lane id=":test_02_15_0" index="0" speed="9.26" length="19.35" shape="14.60,223.40 19.85,224.15 23.60,226.40 25.85,230.15 26.60,235.40"/>
    </edge>
    <edge id=":test_02_0_0" function="internal">
        <lane id=":test_02_0_0_0" index="0" speed="42.50" length="0.10" shape="20.20,250.00 20.20,250.00"/>
        <lane id=":test_02_0_0_1" index="1" speed="42.50" length="0.10" shape="23.40,250.00 23.40,250.00"/>
    </edge>
    <edge id=":test_02_0_2" function="internal">
        <lane id=":test_02_0_2_0" index="0" speed="42.50" length="0.10" shape="29.80,250.00 29.80,250.00"/>
        <lane id=":test_02_0_2_1" index="1" speed="42.50" length="0.10" shape="26.60,250.00 26.60,250.00"/>
    </edge>
    <edge id=":test_02_1_0" function="internal">
        <lane id=":test_02_1_0_0" index="0" speed="42.50" length="0.10" shape="50.00,229.80 50.00,229.80"/>
        <lane id=":test_02_1_0_1" index="1" speed="42.50" length="0.10" shape="50.00,226.60 50.00,226.60"/>
    </edge>
    <edge id=":test_02_1_2" function="internal">
        <lane id=":test_02_1_2_0" index="0" speed="42.50" length="0.10" shape="50.00,220.20 50.00,220.20"/>
        <lane id=":test_02_1_2_1" index="1" speed="42.50" length="0.10" shape="50.00,223.40 50.00,223.40"/>
    </edge>
    <edge id=":test_02_2_0" function="internal">
        <lane id=":test_02_2_0_0" index="0" speed="42.50" length="0.10" shape="20.20,200.00 20.20,200.00"/>
        <lane id=":test_02_2_0_1" index="1" speed="42.50" length="0.10" shape="23.40,200.00 23.40,200.00"/>
    </edge>
    <edge id=":test_02_2_2" function="internal">
        <lane id=":test_02_2_2_0" index="0" speed="42.50" length="0.10" shape="29.80,200.00 29.80,200.00"/>
        <lane id=":test_02_2_2_1" index="1" speed="42.50" length="0.10" shape="26.60,200.00 26.60,200.00"/>
    </edge>
    <edge id=":test_02_3_0" function="internal">
        <lane id=":test_02_3_0_0" index="0" speed="3.65" length="4.67" shape="0.00,226.60 -1.20,225.80 -1.60,225.00 -1.20,224.20 0.00,223.40"/>
    </edge>
    <edge id=":test_03_0" function="internal">
        <lane id=":test_03_0_0" index="0" speed="6.51" length="9.03" shape="20.20,335.40 19.85,332.95 18.80,331.20 17.05,330.15 14.60,329.80"/>
    </edge>
    <edge id=":test_03_1" function="internal">
        <lane id=":test_03_1_0" index="0" speed="25.00" length="20.80" shape="20.20,335.40 20.20,314.60"/>
        <lane id=":test_03_1_1" index="1" speed="25.00" length="20.80" shape="23.40,335.40 23.40,314.60"/>
    </edge>
    <edge id=":test_03_3" function="internal">
        <lane id=":test_03_3_0" index="0" speed="9.26" length="19.35" shape="23.40,335.40 24.15,330.15 26.40,326.40 30.15,324.15 35.40,323.40"/>
    </edge>
    <edge id=":test_03_4" function="internal">
        <lane id=":test_03_4_0" index="0" speed="6.51" length="9.03" shape="35.40,329.80 32.95,330.15 31.20,331.20 30.15,332.95 29.80,335.40"/>
    </edge>
    <edge id=":test_03_5" function="internal">
        <lane id=":test_03_5_0" index="0" speed="25.00" length="20.80" shape="35.40,329.80 14.60,329.80"/>
        <lane id=":test_03_5_1" index="1" speed="25.00" length="20.80" shape="35.40,326.60 14.60,326.60"/>
    </edge>
    <edge id=":test_03_7" function="internal">
        <lane id=":test_03_7_0" index="0" speed="9.26" length="19.35" shape="35.40,326.60 30.15,325.85 26.40,323.60 24.15,319.85 23.40,314.60"/>
    </edge>
    <edge id=":test_03_8" function="internal">
        <lane id=":test_03_8_0" index="0" speed="6.51" length="9.03" shape="29.80,314.60 30.15,317.05 31.20,318.80 32.95,319.85 35.40,320.20"/>
    </edge>
    <edge id=":test_03_9" function="internal">
        <lane id=":test_03_9_0" index="0" speed="25.00" length="20.80" shape="29.80,314.60 29.80,335.40"/>
        <lane id=":test_03_9_1" index="1" speed="25.00" length="20.80" shape="26.60,314.60 26.60,335.40"/>
    </edge>
    <edge id=":test_03_11" function="internal">
        <lane id=":test_03_11_0" index="0" speed="9.26" length="19.35" shape="26.60,314.60 25.85,319.85 23.60,323.60 19.85,325.85 14.60,326.60"/>
    </edge>
    <edge id=":test_03_12" function="internal">
        <lane id=":test_03_12_0" index="0" speed="6.51" length="9.03" shape="14.60,320.20 17.05,319.85 18.80,318.80 19.85,317.05 20.20,314.60"/>
    </edge>
    <edge id=":test_03_13" function="internal">
        <lane id=":test_03_13_0" index="0" speed="25.00" length="20.80" shape="14.60,320.20 35.40,320.20"/>
        <lane id=":test_03_13_1" index="1" speed="25.00" length="20.80" shape="14.60,323.40 35.40,323.40"/>
    </edge>
    <edge id=":test_03_15" function="internal">
        <lane id=":test_03_15_0" index="0" speed="9.26" length="19.35" shape="14.60,323.40 19.85,324.15 23.60,326.40 25.85,330.15 26.60,335.40"/>
    </edge>
    <edge id=":test_03_0_0" function="internal">
        <lane id=":test_03_0_0_0" index="0" speed="42.50" length="0.10" shape="20.20,350.00 20.20,350.00"/>
        <lane id=":test_03_0_0_1" index="1" speed="42.50" length="0.10" shape="23.40,350.00 23.40,350.00"/>
    </edge>
    <edge id=":test_03_0_2" function="internal">
        <lane id=":test_03_0_2_0" index="0" speed="42.50" length="0.10" shape="29.80,350.00 29.80,350.00"/>
        <lane id=":test_03_0_2_1" index="1" speed="42.50" length="0.10" shape="26.60,350.00 26.60,350.00"/>
    </edge>
    <edge id=":test_03_1_0" function="internal">
        <lane id=":test_03_1_0_0" index="0" speed="42.50" length="0.10" shape="50.00,329.80 50.00,329.80"/>
        <lane id=":test_03_1_0_1" index="1" speed="42.50" length="0.10" shape="50.00,326.60 50.00,326.60"/>
    </edge>
    <edge id=":test_03_1_2" function="internal">
        <lane id=":test_03_1_2_0" index="0" speed="42.50" length="0.10" shape="50.00,320.20 50.00,320.20"/>
        <lane id=":test_03_1_2_1" index="1" speed="42.50" length="0.10" shape="50.00,323.40 50.00,323.40"/>
    </edge>
    <edge id=":test_03_2_0" function="internal">
        <lane id=":test_03_2_0_0" index="0" speed="42.50" length="0.10" shape="20.20,300.00 20.20,300.00"/>
        <lane id=":test_03_2_0_1" index="1" speed="42.50" length="0.10" shape="23.40,300.00 23.40,300.00"/>
    </edge>
    <edge id=":test_03_2_2" function="internal">
        <lane id=":test_03_2_2_0" index="0" speed="42.50" length="0.10" shape="29.80,300.00 29.80,300.00"/>
        <lane id=":test_03_2_2_1" index="1" speed="42.50" length="0.10" shape="26.60,300.00 26.60,300.00"/>
    </edge>
    <edge id=":test_03_3_0" function="internal">
        <lane id=":test_03_3_0_0" index="0" speed="3.65" length="4.67" shape="0.00,326.60 -1.20,325.80 -1.60,325.00 -1.20,324.20 0.00,323.40"/>
    </edge>
    <edge id=":test_04_0" function="internal">
        <lane id=":test_04_0_0" index="0" speed="6.51" length="9.03" shape="20.20,435.40 19.85,432.95 18.80,431.20 17.05,430.15 14.60,429.80"/>
    </edge>
    <edge id=":test_04_1" function="internal">
        <lane id=":test_04_1_0" index="0" speed="25.00" length="20.80" shape="20.20,435.40 20.20,414.60"/>
        <lane id=":test_04_1_1" index="1" speed="25.00" length="20.80" shape="23.40,435.40 23.40,414.60"/>
    </edge>
    <edge id=":test_04_3" function="internal">
        <lane id=":test_04_3_0" index="0" speed="9.26" length="19.35" shape="23.40,435.40 24.15,430.15 26.40,426.40 30.15,424.15 35.40,423.40"/>
    </edge>
    <edge id=":test_04_4" function="internal">
        <lane id=":test_04_4_0" index="0" speed="6.51" length="9.03" shape="35.40,429.80 32.95,430.15 31.20,431.20 30.15,432.95 29.80,435.40"/>
    </edge>
    <edge id=":test_04_5" function="internal">
        <lane id=":test_04_5_0" index="0" speed="25.00" length="20.80" shape="35.40,429.80 14.60,429.80"/>
        <lane id=":test_04_5_1" index="1" speed="25.00" length="20.80" shape="35.40,426.60 14.60,426.60"/>
    </edge>
    <edge id=":test_04_7" function="internal">
        <lane id=":test_04_7_0" index="0" speed="9.26" length="19.35" shape="35.40,426.60 30.15,425.85 26.40,423.60 24.15,419.85 23.40,414.60"/>
    </edge>
    <edge id=":test_04_8" function="internal">
        <lane id=":test_04_8_0" index="0" speed="6.51" length="9.03" shape="29.80,414.60 30.15,417.05 31.20,418.80 32.95,419.85 35.40,420.20"/>
    </edge>
    <edge id=":test_04_9" function="internal">
        <lane id=":test_04_9_0" index="0" speed="25.00" length="20.80" shape="29.80,414.60 29.80,435.40"/>
        <lane id=":test_04_9_1" index="1" speed="25.00" length="20.80" shape="26.60,414.60 26.60,435.40"/>
    </edge>
    <edge id=":test_04_11" function="internal">
        <lane id=":test_04_11_0" index="0" speed="9.26" length="19.35" shape="26.60,414.60 25.85,419.85 23.60,423.60 19.85,425.85 14.60,426.60"/>
    </edge>
    <edge id=":test_04_12" function="internal">
        <lane id=":test_04_12_0" index="0" speed="6.51" length="9.03" shape="14.60,420.20 17.05,419.85 18.80,418.80 19.85,417.05 20.20,414.60"/>
    </edge>
    <edge id=":test_04_13" function="internal">
        <lane id=":test_04_13_0" index="0" speed="25.00" length="20.80" shape="14.60,420.20 35.40,420.20"/>
        <lane id=":test_04_13_1" index="1" speed="25.00" length="20.80" shape="14.60,423.40 35.40,423.40"/>
    </edge>
    <edge id=":test_04_15" function="internal">
        <lane id=":test_04_15_0" index="0" speed="9.26" length="19.35" shape="14.60,423.40 19.85,424.15 23.60,426.40 25.85,430.15 26.60,435.40"/>
    </edge>
    <edge id=":test_04_0_0" function="internal">
        <lane id=":test_04_0_0_0" index="0" speed="3.65" length="4.67" shape="26.60,450.00 25.80,451.20 25.00,451.60 24.20,451.20 23.40,450.00"/>
    </edge>
    <edge id=":test_04_1_0" function="internal">
        <lane id=":test_04_1_0_0" index="0" speed="42.50" length="0.10" shape="50.00,429.80 50.00,429.80"/>
        <lane id=":test_04_1_0_1" index="1" speed="42.50" length="0.10" shape="50.00,426.60 50.00,426.60"/>
    </edge>
    <edge id=":test_04_1_2" function="internal">
        <lane id=":test_04_1_2_0" index="0" speed="42.50" length="0.10" shape="50.00,420.20 50.00,420.20"/>
        <lane id=":test_04_1_2_1" index="1" speed="42.50" length="0.10" shape="50.00,423.40 50.00,423.40"/>
    </edge>
    <edge id=":test_04_2_0" function="internal">
        <lane id=":test_04_2_0_0" index="0" speed="42.50" length="0.10" shape="20.20,400.00 20.20,400.00"/>
        <lane id=":test_04_2_0_1" index="1" speed="42.50" length="0.10" shape="23.40,400.00 23.40,400.00"/>
    </edge>
    <edge id=":test_04_2_2" function="internal">
        <lane id=":test_04_2_2_0" index="0" speed="42.50" length="0.10" shape="29.80,400.00 29.80,400.00"/>
        <lane id=":test_04_2_2_1" index="1" speed="42.50" length="0.10" shape="26.60,400.00 26.60,400.00"/>
    </edge>
    <edge id=":test_04_3_0" function="internal">
        <lane id=":test_04_3_0_0" index="0" speed="3.65" length="4.67" shape="0.00,426.60 -1.20,425.80 -1.60,425.00 -1.20,424.20 0.00,423.40"/>
    </edge>
    <edge id=":test_10_0" function="internal">
        <lane id=":test_10_0_0" index="0" speed="6.51" length="9.03" shape="120.20,35.40 119.85,32.95 118.80,31.20 117.05,30.15 114.60,29.80"/>
    </edge>
    <edge id=":test_10_1" function="internal">
        <lane id=":test_10_1_0" index="0" speed="25.00" length="20.80" shape="120.20,35.40 120.20,14.60"/>
        <lane id=":test_10_1_1" index="1" speed="25.00" length="20.80" shape="123.40,35.40 123.40,14.60"/>
    </edge>
    <edge id=":test_10_3" function="internal">
        <lane id=":test_10_3_0" index="0" speed="9.26" length="19.35" shape="123.40,35.40 124.15,30.15 126.40,26.40 130.15,24.15 135.40,23.40"/>
    </edge>
    <edge id=":test_10_4" function="internal">
        <lane id=":test_10_4_0" index="0" speed="6.51" length="9.03" shape="135.40,29.80 132.95,30.15 131.20,31.20 130.15,32.95 129.80,35.40"/>
    </edge>
    <edge id=":test_10_5" function="internal">
        <lane id=":test_10_5_0" index="0" speed="25.00" length="20.80" shape="135.40,29.80 114.60,29.80"/>
        <lane id=":test_10_5_1" index="1" speed="25.00" length="20.80" shape="135.40,26.60 114.60,26.60"/>
    </edge>
    <edge id=":test_10_7" function="internal">
        <lane id=":test_10_7_0" index="0" speed="9.26" length="19.35" shape="135.40,26.60 130.15,25.85 126.40,23.60 124.15,19.85 123.40,14.60"/>
    </edge>
    <edge id=":test_10_8" function="internal">
        <lane id=":test_10_8_0" index="0" speed="6.51" length="9.03" shape="129.80,14.60 130.15,17.05 131.20,18.80 132.95,19.85 135.40,20.20"/>
    </edge>
    <edge id=":test_10_9" function="internal">
        <lane id=":test_10_9_0" index="0" speed="25.00" length="20.80" shape="129.80,14.60 129.80,35.40"/>
        <lane id=":test_10_9_1" index="1" speed="25.00" length="20.80" shape="126.60,14.60 126.60,35.40"/>
    </edge>
    <edge id=":test_10_11" function="internal">
        <lane id=":test_10_11_0" index="0" speed="9.26" length="19.35" shape="126.60,14.60 125.85,19.85 123.60,23.60 119.85,25.85 114.60,26.60"/>
    </edge>
    <edge id=":test_10_12" function="internal">
        <lane id=":test_10_12_0" index="0" speed="6.51" length="9.03" shape="114.60,20.20 117.05,19.85 118.80,18.80 119.85,17.05 120.20,14.60"/>
    </edge>
    <edge id=":test_10_13" function="internal">
        <lane id=":test_10_13_0" index="0" speed="25.00" length="20.80" shape="114.60,20.20 135.40,20.20"/>
        <lane id=":test_10_13_1" index="1" speed="25.00" length="20.80" shape="114.60,23.40 135.40,23.40"/>
    </edge>
    <edge id=":test_10_15" function="internal">
        <lane id=":test_10_15_0" index="0" speed="9.26" length="19.35" shape="114.60,23.40 119.85,24.15 123.60,26.40 125.85,30.15 126.60,35.40"/>
    </edge>
    <edge id=":test_10_0_0" function="internal">
        <lane id=":test_10_0_0_0" index="0" speed="42.50" length="0.10" shape="120.20,50.00 120.20,50.00"/>
        <lane id=":test_10_0_0_1" index="1" speed="42.50" length="0.10" shape="123.40,50.00 123.40,50.00"/>
    </edge>
    <edge id=":test_10_0_2" function="internal">
        <lane id=":test_10_0_2_0" index="0" speed="42.50" length="0.10" shape="129.80,50.00 129.80,50.00"/>
        <lane id=":test_10_0_2_1" index="1" speed="42.50" length="0.10" shape="126.60,50.00 126.60,50.00"/>
    </edge>
    <edge id=":test_10_1_0" function="internal">
        <lane id=":test_10_1_0_0" index="0" speed="42.50" length="0.10" shape="150.00,29.80 150.00,29.80"/>
        <lane id=":test_10_1_0_1" index="1" speed="42.50" length="0.10" shape="150.00,26.60 150.00,26.60"/>
    </edge>
    <edge id=":test_10_1_2" function="internal">
        <lane id=":test_10_1_2_0" index="0" speed="42.50" length="0.10" shape="150.00,20.20 150.00,20.20"/>
        <lane id=":test_10_1_2_1" index="1" speed="42.50" length="0.10" shape="150.00,23.40 150.00,23.40"/>
    </edge>
    <edge id=":test_10_2_0" function="internal">
        <lane id=":test_10_2_0_0" index="0" speed="3.65" length="4.67" shape="123.40,0.00 124.20,-1.20 125.00,-1.60 125.80,-1.20 126.60,0.00"/>
    </edge>
    <edge id=":test_10_3_0" function="internal">
        <lane id=":test_10_3_0_0" index="0" speed="42.50" length="0.10" shape="100.00,29.80 100.00,29.80"/>
        <lane id=":test_10_3_0_1" index="1" speed="42.50" length="0.10" shape="100.00,26.60 100.00,26.60"/>
    </edge>
    <edge id=":test_10_3_2" function="internal">
        <lane id=":test_10_3_2_0" index="0" speed="42.50" length="0.10" shape="100.00,20.20 100.00,20.20"/>
        <lane id=":test_10_3_2_1" index="1" speed="42.50" length="0.10" shape="100.00,23.40 100.00,23.40"/>
    </edge>
    <edge id=":test_11_0" function="internal">
        <lane id=":test_11_0_0" index="0" speed="6.51" length="9.03" shape="120.20,135.40 119.85,132.95 118.80,131.20 117.05,130.15 114.60,129.80"/>
    </edge>
    <edge id=":test_11_1" function="internal">
        <lane id=":test_11_1_0" index="0" speed="25.00" length="20.80" shape="120.20,135.40 120.20,114.60"/>
        <lane id=":test_11_1_1" index="1" speed="25.00" length="20.80" shape="123.40,135.40 123.40,114.60"/>
    </edge>
    <edge id=":test_11_3" function="internal">
        <lane id=":test_11_3_0" index="0" speed="9.26" length="19.35" shape="123.40,135.40 124.15,130.15 126.40,126.40 130.15,124.15 135.40,123.40"/>
    </edge>
    <edge id=":test_11_4" function="internal">
        <lane id=":test_11_4_0" index="0" speed="6.51" length="9.03" shape="135.40,129.80 132.95,130.15 131.20,131.20 130.15,132.95 129.80,135.40"/>
    </edge>
    <edge id=":test_11_5" function="internal">
        <lane id=":test_11_5_0" index="0" speed="25.00" length="20.80" shape="135.40,129.80 114.60,129.80"/>
        <lane id=":test_11_5_1" index="1" speed="25.00" length="20.80" shape="135.40,126.60 114.60,126.60"/>
    </edge>
    <edge id=":test_11_7" function="internal">
        <lane id=":test_11_7_0" index="0" speed="9.26" length="19.35" shape="135.40,126.60 130.15,125.85 126.40,123.60 124.15,119.85 123.40,114.60"/>
    </edge>
    <edge id=":test_11_8" function="internal">
        <lane id=":test_11_8_0" index="0" speed="6.51" length="9.03" shape="129.80,114.60 130.15,117.05 131.20,118.80 132.95,119.85 135.40,120.20"/>
    </edge>
    <edge id=":test_11_9" function="internal">
        <lane id=":test_11_9_0" index="0" speed="25.00" length="20.80" shape="129.80,114.60 129.80,135.40"/>
        <lane id=":test_11_9_1" index="1" speed="25.00" length="20.80" shape="126.60,114.60 126.60,135.40"/>
    </edge>