<edges>
   <edge id="test_00_0i" from="test_00_0" to="test_00" numLanes="2" speed="25.000000" length="50.000000"/>
   <edge id="test_00_0o" from="test_00" to="test_00_0" numLanes="2" speed="25.000000" length="50.000000"/>

   <edge id="test_00_1i" from="test_00_1" to="test_00" numLanes="2" speed="25.000000" length="50.000000"/>
   <edge id="test_00_1o" from="test_00" to="test_00_1" numLanes="2" speed="25.000000" length="50.000000"/>

   <edge id="test_00_2i" from="test_00_2" to="test_00" numLanes="2" speed="25.000000" length="50.000000"/>
   <edge id="test_00_2o" from="test_00" to="test_00_2" numLanes="2" speed="25.000000" length="50.000000"/>

   <edge id="test_00_3i" from="test_00_3" to="test_00" numLanes="2" speed="25.000000" length="50.000000"/>
   <edge id="test_00_3o" from="test_00" to="test_00_3" numLanes="2" speed="25.000000" length="50.000000"/>

   <edge id="test_01_0i" from="test_01_0" to="test_01" numLanes="2" speed="25.000000" length="50.000000"/>
   <edge id="test_01_0o" from="test_01" to="test_01_0" numLanes="2" speed="25.000000" length="50.000000"/>

   <edge id="test_01_1i" from="test_01_1" to="test_01" numLanes="2" speed="25.000000" length="50.000000"/>
   <edge id="test_01_1o" from="test_01" to="test_01_1" numLanes="2" speed="25.000000" length="50.000000"/>

   <edge id="test_01_2i" from="test_01_2" to="test_01" numLanes="2" speed="25.000000" length="50.000000"/>
   <edge id="test_01_2o" from="test_01" to="test_01_2" numLanes="2" speed="25.000000" length="50.000000"/>

   <edge id="test_01_3i" from="test_01_3" to="test_01" numLanes="2" speed="25.000000" length="50.000000"/>
   <edge id="test_01_3o" from="test_01" to="test_01_3" numLanes="2" speed="25.000000" length="50.000000"/>

   <edge id="test_02_0i" from="test_02_0" to="test_02" numLanes="2" speed="25.000000" length="50.000000"/>
   <edge id="test_02_0o" from="test_02" to="test_02_0" numLanes="2" speed="25.000000" length="50.000000"/>

   <edge id="test_02_1i" from="test_02_1" to="test_02" numLanes="2" speed="25.000000" length="50.000000"/>
   <edge id="test_02_1o" from="test_02" to="test_02_1" numLanes="2" speed="25.000000" length="50.000000"/>

   <edge id="test_02_2i" from="test_02_2" to="test_02" numLanes="2" speed="25.000000" length="50.000000"/>
   <edge id="test_02_2o" from="test_02" to="test_02_2" numLanes="2" speed="25.000000" length="50.000000"/>

   <edge id="test_02_3i" from="test_02_3" to="test_02" numLanes="2" speed="25.000000" length="50.000000"/>
   <edge id="test_02_3o" from="test_02" to="test_02_3" numLanes="2" speed="25.000000" length="50.000000"/>

   <edge id="test_03_0i" from="test_03_0" to="test_03" numLanes="2" speed="25.000000" length="50.000000"/>
   <edge id="test_03_0o" from="test_03" to="test_03_0" numLanes="2" speed="25.000000" length="50.000000"/>

   <edge id="test_03_1i" from="test_03_1" to="test_03" numLanes="2" speed="25.000000" length="50.000000"/>
   <edge id="test_03_1o" from="test_03" to="test_03_1" numLanes="2" speed="25.000000" length="50.000000"/>

   <edge id="test_03_2i" from="test_03_2" to="test_03" numLanes="2" speed="25.000000" length="50.000000"/>
   <edge id="test_03_2o" from="test_03" to="test_03_2" numLanes="2" speed="25.000000" length="50.000000"/>

   <edge id="test_03_3i" from="test_03_3" to="test_03" numLanes="2" speed="25.000000" length="50.000000"/>
   <edge id="test_03_3o" from="test_03" to="test_03_3" numLanes="2" speed="25.000000" length="50.000000"/>

   <edge id="test_04_0i" from="test_04_0" to="test_04" numLanes="2" speed="25.000000" length="50.000000"/>
   <edge id="test_04_0o" from="test_04" to="test_04_0" numLanes="2" speed="25.000000" length="50.000000"/>

   <edge id="test_04_1i" from="test_04_1" to="test_04" numLanes="2" speed="25.000000" length="50.000000"/>
   <edge id="test_04_1o" from="test_04" to="test_04_1" numLanes="2" speed="25.000000" length="50.000000"/>

   <edge id="test_04_2i" from="test_04_2" to="test_04" numLanes="2" speed="25.000000" length="50.000000"/>
   <edge id="test_04_2o" from="test_04" to="test_04_2" numLanes="2" speed="25.000000" length="50.000000"/>

   <edge id="test_04_3i" from="test_04_3" to="test_04" numLanes="2" speed="25.000000" length="50.000000"/>
   <edge id="test_04_3o" from="test_04" to="test_04_3" numLanes="2" speed="25.000000" length="50.000000"/>

   <edge id="test_05_0i" from="test_05_0" to="test_05" numLanes="2" speed="25.000000" length="50.000000"/>
   <edge id="test_05_0o" from="test_05" to="test_05_0" numLanes="2" speed="25.000000" length="50.000000"/>

   <edge id="test_05_1i" from="test_05_1" to="test_05" numLanes="2" speed="25.000000" length="50.000000"/>
   <edge id="test_05_1o" from="test_05" to="test_05_1" numLanes="2" speed="25.000000" length="50.000000"/>

   <edge id="test_05_2i" from="test_05_2" to="test_05" numLanes="2" speed="25.000000" length="50.000000"/>
   <edge id="test_05_2o" from="test_05" to="test_05_2" numLanes="2" speed="25.000000" length="50.000000"/>

   <edge id="test_05_3i" from="test_05_3" to="test_05" numLanes="2" speed="25.000000" length="50.000000"/>
   <edge id="test_05_3o" from="test_05" to="test_05_3" numLanes="2" speed="25.000000" length="50.000000"/>

   <edge id="test_06_0i" from="test_06_0" to="test_06" numLanes="2" speed="25.000000" length="50.000000"/>
   <edge id="test_06_0o" from="test_06" to="test_06_0" numLanes="2" speed="25.000000" length="50.000000"/>

   <edge id="test_06_1i" from="test_06_1" to="test_06" numLanes="2" speed="25.000000" length="50.000000"/>
   <edge id="test_06_1o" from="test_06" to="test_06_1" numLanes="2" speed="25.000000" length="50.000000"/>

   <edge id="test_06_2i" from="test_06_2" to="test_06" numLanes="2" speed="25.000000" length="50.000000"/>
   <edge id="test_06_2o" from="test_06" to="test_06_2" numLanes="2" speed="25.000000" length="50.000000"/>

   <edge id="test_06_3i" from="test_06_3" to="test_06" numLanes="2" speed="25.000000" length="50.000000"/>
   <edge id="test_06_3o" from="test_06" to="test_06_3" numLanes="2" speed="25.000000" length="50.000000"/>

   <edge id="test_07_0i" from="test_07_0" to="test_07" numLanes="2" speed="25.000000" length="50.000000"/>
   <edge id="test_07_0o" from="test_07" to="test_07_0" numLanes="2" speed="25.000000" length="50.000000"/>

   <edge id="test_07_1i" from="test_07_1" to="test_07" numLanes="2" speed="25.000000" length="50.000000"/>
   <edge id="test_07_1o" from="test_07" to="test_07_1" numLanes="2" speed="25.000000" length="50.000000"/>

   <edge id="test_07_2i" from="test_07_2" to="test_07" numLanes="2" speed="25.000000" length="50.000000"/>
   <edge id="test_07_2o" from="test_07" to="test_07_2" numLanes="2" speed="25.000000" length="50.000000"/>

   <edge id="test_07_3i" from="test_07_3" to="test_07" numLanes="2" speed="25.000000" length="50.000000"/>
   <edge id="test_07_3o" from="test_07" to="test_07_3" numLanes="2" speed="25.000000" length="50.000000"/>

   <edge id="test_08_0i" from="test_08_0" to="test_08" numLanes="2" speed="25.000000" length="50.000000"/>
   <edge id="test_08_0o" from="test_08" to="test_08_0" numLanes="2" speed="25.000000" length="50.000000"/>

   <edge id="test_08_1i" from="test_08_1" to="test_08" numLanes="2" speed="25.000000" length="50.000000"/>
   <edge id="test_08_1o" from="test_08" to="test_08_1" numLanes="2" speed="25.000000" length="50.000000"/>

   <edge id="test_08_2i" from="test_08_2" to="test_08" numLanes="2" speed="25.000000" length="50.000000"/>
   <edge id="test_08_2o" from="test_08" to="test_08_2" numLanes="2" speed="25.000000" length="50.000000"/>

   <edge id="test_08_3i" from="test_08_3" to="test_08" numLanes="2" speed="25.000000" length="50.000000"/>
   <edge id="test_08_3o" from="test_08" to="test_08_3" numLanes="2" speed="25.000000" length="50.000000"/>

   <edge id="test_09_0i" from="test_09_0" to="test_09" numLanes="2" speed="25.000000" length="50.000000"/>
   <edge id="test_09_0o" from="test_09" to="test_09_0" numLanes="2" speed="25.000000" length="50.000000"/>

   <edge id="test_09_1i" from="test_09_1" to="test_09" numLanes="2" speed="25.000000" length="50.000000"/>
   <edge id="test_09_1o" from="test_09" to="test_09_1" numLanes="2" speed="25.000000" length="50.000000"/>

   <edge id="test_09_2i" from="test_09_2" to="test_09" numLanes="2" speed="25.000000" length="50.000000"/>
   <edge id="test_09_2o" from="test_09" to="test_09_2" numLanes="2" speed="25.000000" length="50.000000"/>

   <edge id="test_09_3i" from="test_09_3" to="test_09" numLanes="2" speed="25.000000" length="50.000000"/>
   <edge id="test_09_3o" from="test_09" to="test_09_3" numLanes="2" speed="25.000000" length="50.000000"/>

   <edge id="test_10_0i" from="test_10_0" to="test_10" numLanes="2" speed="25.000000" length="50.000000"/>
   <edge id="test_10_0o" from="test_10" to="test_10_0" numLanes="2" speed="25.000000" length="50.000000"/>

   <edge id="test_10_1i" from="test_10_1" to="test_10" numLanes="2" speed="25.000000" length="50.000000"/>
   <edge id="test_10_1o" from="test_10" to="test_10_1" numLanes="2" speed="25.000000" length="50.000000"/>

   <edge id="test_10_2i" from="test_10_2" to="test_10" numLanes="2" speed="25.000000" length="50.000000"/>
   <edge id="test_10_2o" from="test_10" to="test_10_2" numLanes="2" speed="25.000000" length="50.000000"/>

   <edge id="test_10_3i" from="test_10_3" to="test_10" numLanes="2" speed="25.000000" length="50.000000"/>
   <edge id="test_10_3o" from="test_10" to="test_10_3" numLanes="2" speed="25.000000" length="50.000000"/>

   <edge id="test_11_0i" from="test_11_0" to="test_11" numLanes="2" speed="25.000000" length="50.000000"/>
   <edge id="test_11_0o" from="test_11" to="test_11_0" numLanes="2" speed="25.000000" length="50.000000"/>

   <edge id="test_11_1i" from="test_11_1" to="test_11" numLanes="2" speed="25.000000" length="50.000000"/>
   <edge id="test_11_1o" from="test_11" to="test_11_1" numLanes="2" speed="25.000000" length="50.000000"/>

   <edge id="test_11_2i" from="test_11_2" to="test_11" numLanes="2" speed="25.000000" length="50.000000"/>
   <edge id="test_11_2o" from="test_11" to="test_11_2" numLanes="2" speed="25.000000" length="50.000000"/>

   <edge id="test_11_3i" from="test_11_3" to="test_11" numLanes="2" speed="25.000000" length="50.000000"/>
   <edge id="test_11_3o" from="test_11" to="test_11_3" numLanes="2" speed="25.000000" length="50.000000"/>

   <edge id="test_12_0i" from="test_12_0" to="test_12" numLanes="2" speed="25.000000" length="50.000000"/>
   <edge id="test_12_0o" from="test_12" to="test_12_0" numLanes="2" speed="25.000000" length="50.000000"/>

   <edge id="test_12_1i" from="test_12_1" to="test_12" numLanes="2" speed="25.000000" length="50.000000"/>
   <edge id="test_12_1o" from="test_12" to="test_12_1" numLanes="2" speed="25.000000" length="50.000000"/>

   <edge id="test_12_2i" from="test_12_2" to="test_12" numLanes="2" speed="25.000000" length="50.000000"/>
   <edge id="test_12_2o" from="test_12" to="test_12_2" numLanes="2" speed="25.000000" length="50.000000"/>

   <edge id="test_12_3i" from="test_12_3" to="test_12" numLanes="2" speed="25.000000" length="50.000000"/>
   <edge id="test_12_3o" from="test_12" to="test_12_3" numLanes="2" speed="25.000000" length="50.000000"/>

   <edge id="test_13_0i" from="test_13_0" to="test_13" numLanes="2" speed="25.000000" length="50.000000"/>
   <edge id="test_13_0o" from="test_13" to="test_13_0" numLanes="2" speed="25.000000" length="50.000000"/>

   <edge id="test_13_1i" from="test_13_1" to="test_13" numLanes="2" speed="25.000000" length="50.000000"/>
   <edge id="test_13_1o" from="test_13" to="test_13_1" numLanes="2" speed="25.000000" length="50.000000"/>

   <edge id="test_13_2i" from="test_13_2" to="test_13" numLanes="2" speed="25.000000" length="50.000000"/>
   <edge id="test_13_2o" from="test_13" to="test_13_2" numLanes="2" speed="25.000000" length="50.000000"/>

   <edge id="test_13_3i" from="test_13_3" to="test_13" numLanes="2" speed="25.000000" length="50.000000"/>
   <edge id="test_13_3o" from="test_13" to="test_13_3" numLanes="2" speed="25.000000" length="50.000000"/>

   <edge id="test_14_0i" from="test_14_0" to="test_14" numLanes="2" speed="25.000000" length="50.000000"/>
   <edge id="test_14_0o" from="test_14" to="test_14_0" numLanes="2" speed="25.000000" length="50.000000"/>

   <edge id="test_14_1i" from="test_14_1" to="test_14" numLanes="2" speed="25.000000" length="50.000000"/>
   <edge id="test_14_1o" from="test_14" to="test_14_1" numLanes="2" speed="25.000000" length="50.000000"/>

   <edge id="test_14_2i" from="test_14_2" to="test_14" numLanes="2" speed="25.000000" length="50.000000"/>
   <edge id="test_14_2o" from="test_14" to="test_14_2" numLanes="2" speed="25.000000" length="50.000000"/>

   <edge id="test_14_3i" from="test_14_3" to="test_14" numLanes="2" speed="25.000000" length="50.000000"/>
   <edge id="test_14_3o" from="test_14" to="test_14_3" numLanes="2" speed="25.000000" length="50.000000"/>

   <edge id="test_15_0i" from="test_15_0" to="test_15" numLanes="2" speed="25.000000" length="50.000000"/>
   <edge id="test_15_0o" from="test_15" to="test_15_0" numLanes="2" speed="25.000000" length="50.000000"/>

   <edge id="test_15_1i" from="test_15_1" to="test_15" numLanes="2" speed="25.000000" length="50.000000"/>
   <edge id="test_15_1o" from="test_15" to="test_15_1" numLanes="2" speed="25.000000" length="50.000000"/>

   <edge id="test_15_2i" from="test_15_2" to="test_15" numLanes="2" speed="25.000000" length="50.000000"/>
   <edge id="test_15_2o" from="test_15" to="test_15_2" numLanes="2" speed="25.000000" length="50.000000"/>

   <edge id="test_15_3i" from="test_15_3" to="test_15" numLanes="2" speed="25.000000" length="50.000000"/>
   <edge id="test_15_3o" from="test_15" to="test_15_3" numLanes="2" speed="25.000000" length="50.000000"/>

   <edge id="test_16_0i" from="test_16_0" to="test_16" numLanes="2" speed="25.000000" length="50.000000"/>
   <edge id="test_16_0o" from="test_16" to="test_16_0" numLanes="2" speed="25.000000" length="50.000000"/>

   <edge id="test_16_1i" from="test_16_1" to="test_16" numLanes="2" speed="25.000000" length="50.000000"/>
   <edge id="test_16_1o" from="test_16" to="test_16_1" numLanes="2" speed="25.000000" length="50.000000"/>

   <edge id="test_16_2i" from="test_16_2" to="test_16" numLanes="2" speed="25.000000" length="50.000000"/>
   <edge id="test_16_2o" from="test_16" to="test_16_2" numLanes="2" speed="25.000000" length="50.000000"/>

   <edge id="test_16_3i" from="test_16_3" to="test_16" numLanes="2" speed="25.000000" length="50.000000"/>
   <edge id="test_16_3o" from="test_16" to="test_16_3" numLanes="2" speed="25.000000" length="50.000000"/>

   <edge id="test_17_0i" from="test_17_0" to="test_17" numLanes="2" speed="25.000000" length="50.000000"/>
   <edge id="test_17_0o" from="test_17" to="test_17_0" numLanes="2" speed="25.000000" length="50.000000"/>

   <edge id="test_17_1i" from="test_17_1" to="test_17" numLanes="2" speed="25.000000" length="50.000000"/>
   <edge id="test_17_1o" from="test_17" to="test_17_1" numLanes="2" speed="25.000000" length="50.000000"/>

   <edge id="test_17_2i" from="test_17_2" to="test_17" numLanes="2" speed="25.000000" length="50.000000"/>
   <edge id="test_17_2o" from="test_17" to="test_17_2" numLanes="2" speed="25.000000" length="50.000000"/>

   <edge id="test_17_3i" from="test_17_3" to="test_17" numLanes="2" speed="25.000000" length="50.000000"/>
   <edge id="test_17_3o" from="test_17" to="test_17_3" numLanes="2" speed="25.000000" length="50.000000"/>

   <edge id="test_18_0i" from="test_18_0" to="test_18" numLanes="2" speed="25.000000" length="50.000000"/>
   <edge id="test_18_0o" from="test_18" to="test_18_0" numLanes="2" speed="25.000000" length="50.000000"/>

   <edge id="test_18_1i" from="test_18_1" to="test_18" numLanes="2" speed="25.000000" length="50.000000"/>
   <edge id="test_18_1o" from="test_18" to="test_18_1" numLanes="2" speed="25.000000" length="50.000000"/>

   <edge id="test_18_2i" from="test_18_2" to="test_18" numLanes="2" speed="25.000000" length="50.000000"/>
   <edge id="test_18_2o" from="test_18" to="test_18_2" numLanes="2" speed="25.000000" length="50.000000"/>

   <edge id="test_18_3i" from="test_18_3" to="test_18" numLanes="2" speed="25.000000" length="50.000000"/>
   <edge id="test_18_3o" from="test_18" to="test_18_3" numLanes="2" speed="25.000000" length="50.000000"/>

   <edge id="test_19_0i" from="test_19_0" to="test_19" numLanes="2" speed="25.000000" length="50.000000"/>
   <edge id="test_19_0o" from="test_19" to="test_19_0" numLanes="2" speed="25.000000" length="50.000000"/>

   <edge id="test_19_1i" from="test_19_1" to="test_19" numLanes="2" speed="25.000000" length="50.000000"/>
   <edge id="test_19_1o" from="test_19" to="test_19_1" numLanes="2" speed="25.000000" length="50.000000"/>

   <edge id="test_19_2i" from="test_19_2" to="test_19" numLanes="2" speed="25.000000" length="50.000000"/>
   <edge id="test_19_2o" from="test_19" to="test_19_2" numLanes="2" speed="25.000000" length="50.000000"/>

   <edge id="test_19_3i" from="test_19_3" to="test_19" numLanes="2" speed="25.000000" length="50.000000"/>
   <edge id="test_19_3o" from="test_19" to="test_19_3" numLanes="2" speed="25.000000" length="50.000000"/>

   <edge id="test_20_0i" from="test_20_0" to="test_20" numLanes="2" speed="25.000000" length="50.000000"/>
   <edge id="test_20_0o" from="test_20" to="test_20_0" numLanes="2" speed="25.000000" length="50.000000"/>

   <edge id="test_20_1i" from="test_20_1" to="test_20" numLanes="2" speed="25.000000" length="50.000000"/>
   <edge id="test_20_1o" from="test_20" to="test_20_1" numLanes="2" speed="25.000000" length="50.000000"/>

   <edge id="test_20_2i" from="test_20_2" to="test_20" numLanes="2" speed="25.000000" length="50.000000"/>
   <edge id="test_20_2o" from="test_20" to="test_20_2" numLanes="2" speed="25.000000" length="50.000000"/>

   <edge id="test_20_3i" from="test_20_3" to="test_20" numLanes="2" speed="25.000000" length="50.000000"/>
   <edge id="test_20_3o" from="test_20" to="test_20_3" numLanes="2" speed="25.000000" length="50.000000"/>

   <edge id="test_21_0i" from="test_21_0" to="test_21" numLanes="2" speed="25.000000" length="50.000000"/>
   <edge id="test_21_0o" from="test_21" to="test_21_0" numLanes="2" speed="25.000000" length="50.000000"/>

   <edge id="test_21_1i" from="test_21_1" to="test_21" numLanes="2" speed="25.000000" length="50.000000"/>
   <edge id="test_21_1o" from="test_21" to="test_21_1" numLanes="2" speed="25.000000" length="50.000000"/>

   <edge id="test_21_2i" from="test_21_2" to="test_21" numLanes="2" speed="25.000000" length="50.000000"/>
   <edge id="test_21_2o" from="test_21" to="test_21_2" numLanes="2" speed="25.000000" length="50.000000"/>

   <edge id="test_21_3i" from="test_21_3" to="test_21" numLanes="2" speed="25.000000" length="50.000000"/>
   <edge id="test_21_3o" from="test_21" to="test_21_3" numLanes="2" speed="25.000000" length="50.000000"/>

   <edge id="test_22_0i" from="test_22_0" to="test_22" numLanes="2" speed="25.000000" length="50.000000"/>
   <edge id="test_22_0o" from="test_22" to="test_22_0" numLanes="2" speed="25.000000" length="50.000000"/>

   <edge id="test_22_1i" from="test_22_1" to="test_22" numLanes="2" speed="25.000000" length="50.000000"/>
   <edge id="test_22_1o" from="test_22" to="test_22_1" numLanes="2" speed="25.000000" length="50.000000"/>

   <edge id="test_22_2i" from="test_22_2" to="test_22" numLanes="2" speed="25.000000" length="50.000000"/>
   <edge id="test_22_2o" from="test_22" to="test_22_2" numLanes="2" speed="25.000000" length="50.000000"/>

   <edge id="test_22_3i" from="test_22_3" to="test_22" numLanes="2" speed="25.000000" length="50.000000"/>
   <edge id="test_22_3o" from="test_22" to="test_22_3" numLanes="2" speed="25.000000" length="50.000000"/>

   <edge id="test_23_0i" from="test_23_0" to="test_23" numLanes="2" speed="25.000000" length="50.000000"/>
   <edge id="test_23_0o" from="test_23" to="test_23_0" numLanes="2" speed="25.000000" length="50.000000"/>

   <edge id="test_23_1i" from="test_23_1" to="test_23" numLanes="2" speed="25.000000" length="50.000000"/>
   <edge id="test_23_1o" from="test_23" to="test_23_1" numLanes="2" speed="25.000000" length="50.000000"/>

   <edge id="test_23_2i" from="test_23_2" to="test_23" numLanes="2" speed="25.000000" length="50.000000"/>
   <edge id="test_23_2o" from="test_23" to="test_23_2" numLanes="2" speed="25.000000" length="50.000000"/>

   <edge id="test_23_3i" from="test_23_3" to="test_23" numLanes="2" speed="25.000000" length="50.000000"/>
   <edge id="test_23_3o" from="test_23" to="test_23_3" numLanes="2" speed="25.000000" length="50.000000"/>

   <edge id="test_24_0i" from="test_24_0" to="test_24" numLanes="2" speed="25.000000" length="50.000000"/>
   <edge id="test_24_0o" from="test_24" to="test_24_0" numLanes="2" speed="25.000000" length="50.000000"/>

   <edge id="test_24_1i" from="test_24_1" to="test_24" numLanes="2" speed="25.000000" length="50.000000"/>
   <edge id="test_24_1o" from="test_24" to="test_24_1" numLanes="2" speed="25.000000" length="50.000000"/>

   <edge id="test_24_2i" from="test_24_2" to="test_24" numLanes="2" speed="25.000000" length="50.000000"/>
   <edge id="test_24_2o" from="test_24" to="test_24_2" numLanes="2" speed="25.000000" length="50.000000"/>

   <edge id="test_24_3i" from="test_24_3" to="test_24" numLanes="2" speed="25.000000" length="50.000000"/>
   <edge id="test_24_3o" from="test_24" to="test_24_3" numLanes="2" speed="25.000000" length="50.000000"/>

   <edge id="test_25_0i" from="test_25_0" to="test_25" numLanes="2" speed="25.000000" length="50.000000"/>
   <edge id="test_25_0o" from="test_25" to="test_25_0" numLanes="2" speed="25.000000" length="50.000000"/>

   <edge id="test_25_1i" from="test_25_1" to="test_25" numLanes="2" speed="25.000000" length="50.000000"/>
   <edge id="test_25_1o" from="test_25" to="test_25_1" numLanes="2" speed="25.000000" length="50.000000"/>

   <edge id="test_25_2i" from="test_25_2" to="test_25" numLanes="2" speed="25.000000" length="50.000000"/>
   <edge id="test_25_2o" from="test_25" to="test_25_2" numLanes="2" speed="25.000000" length="50.000000"/>

   <edge id="test_25_3i" from="test_25_3" to="test_25" numLanes="2" speed="25.000000" length="50.000000"/>
   <edge id="test_25_3o" from="test_25" to="test_25_3" numLanes="2" speed="25.000000" length="50.000000"/>

   <edge id="test_26_0i" from="test_26_0" to="test_26" numLanes="2" speed="25.000000" length="50.000000"/>
   <edge id="test_26_0o" from="test_26" to="test_26_0" numLanes="2" speed="25.000000" length="50.000000"/>

   <edge id="test_26_1i" from="test_26_1" to="test_26" numLanes="2" speed="25.000000" length="50.000000"/>
   <edge id="test_26_1o" from="test_26" to="test_26_1" numLanes="2" speed="25.000000" length="50.000000"/>

   <edge id="test_26_2i" from="test_26_2" to="test_26" numLanes="2" speed="25.000000" length="50.000000"/>
   <edge id="test_26_2o" from="test_26" to="test_26_2" numLanes="2" speed="25.000000" length="50.000000"/>

   <edge id="test_26_3i" from="test_26_3" to="test_26" numLanes="2" speed="25.000000" length="50.000000"/>
   <edge id="test_26_3o" from="test_26" to="test_26_3" numLanes="2" speed="25.000000" length="50.000000"/>

   <edge id="test_27_0i" from="test_27_0" to="test_27" numLanes="2" speed="25.000000" length="50.000000"/>
   <edge id="test_27_0o" from="test_27" to="test_27_0" numLanes="2" speed="25.000000" length="50.000000"/>

   <edge id="test_27_1i" from="test_27_1" to="test_27" numLanes="2" speed="25.000000" length="50.000000"/>
   <edge id="test_27_1o" from="test_27" to="test_27_1" numLanes="2" speed="25.000000" length="50.000000"/>

   <edge id="test_27_2i" from="test_27_2" to="test_27" numLanes="2" speed="25.000000" length="50.000000"/>
   <edge id="test_27_2o" from="test_27" to="test_27_2" numLanes="2" speed="25.000000" length="50.000000"/>

   <edge id="test_27_3i" from="test_27_3" to="test_27" numLanes="2" speed="25.000000" length="50.000000"/>
   <edge id="test_27_3o" from="test_27" to="test_27_3" numLanes="2" speed="25.000000" length="50.000000"/>

   <edge id="test_28_0i" from="test_28_0" to="test_28" numLanes="2" speed="25.000000" length="50.000000"/>
   <edge id="test_28_0o" from="test_28" to="test_28_0" numLanes="2" speed="25.000000" length="50.000000"/>

   <edge id="test_28_1i" from="test_28_1" to="test_28" numLanes="2" speed="25.000000" length="50.000000"/>
   <edge id="test_28_1o" from="test_28" to="test_28_1" numLanes="2" speed="25.000000" length="50.000000"/>

   <edge id="test_28_2i" from="test_28_2" to="test_28" numLanes="2" speed="25.000000" length="50.000000"/>
   <edge id="test_28_2o" from="test_28" to="test_28_2" numLanes="2" speed="25.000000" length="50.000000"/>

   <edge id="test_28_3i" from="test_28_3" to="test_28" numLanes="2" speed="25.000000" length="50.000000"/>
   <edge id="test_28_3o" from="test_28" to="test_28_3" numLanes="2" speed="25.000000" length="50.000000"/>

   <edge id="test_29_0i" from="test_29_0" to="test_29" numLanes="2" speed="25.000000" length="50.000000"/>
   <edge id="test_29_0o" from="test_29" to="test_29_0" numLanes="2" speed="25.000000" length="50.000000"/>

   <edge id="test_29_1i" from="test_29_1" to="test_29" numLanes="2" speed="25.000000" length="50.000000"/>
   <edge id="test_29_1o" from="test_29" to="test_29_1" numLanes="2" speed="25.000000" length="50.000000"/>

   <edge id="test_29_2i" from="test_29_2" to="test_29" numLanes="2" speed="25.000000" length="50.000000"/>
   <edge id="test_29_2o" from="test_29" to="test_29_2" numLanes="2" speed="25.000000" length="50.000000"/>

   <edge id="test_29_3i" from="test_29_3" to="test_29" numLanes="2" speed="25.000000" length="50.000000"/>
   <edge id="test_29_3o" from="test_29" to="test_29_3" numLanes="2" speed="25.000000" length="50.000000"/>

   <edge id="test_30_0i" from="test_30_0" to="test_30" numLanes="2" speed="25.000000" length="50.000000"/>
   <edge id="test_30_0o" from="test_30" to="test_30_0" numLanes="2" speed="25.000000" length="50.000000"/>

   <edge id="test_30_1i" from="test_30_1" to="test_30" numLanes="2" speed="25.000000" length="50.000000"/>
   <edge id="test_30_1o" from="test_30" to="test_30_1" numLanes="2" speed="25.000000" length="50.000000"/>

   <edge id="test_30_2i" from="test_30_2" to="test_30" numLanes="2" speed="25.000000" length="50.000000"/>
   <edge id="test_30_2o" from="test_30" to="test_30_2" numLanes="2" speed="25.000000" length="50.000000"/>

   <edge id="test_30_3i" from="test_30_3" to="test_30" numLanes="2" speed="25.000000" length="50.000000"/>
   <edge id="test_30_3o" from="test_30" to="test_30_3" numLanes="2" speed="25.000000" length="50.000000"/>

   <edge id="test_31_0i" from="test_31_0" to="test_31" numLanes="2" speed="25.000000" length="50.000000"/>
   <edge id="test_31_0o" from="test_31" to="test_31_0" numLanes="2" speed="25.000000" length="50.000000"/>

   <edge id="test_31_1i" from="test_31_1" to="test_31" numLanes="2" speed="25.000000" length="50.000000"/>
   <edge id="test_31_1o" from="test_31" to="test_31_1" numLanes="2" speed="25.000000" length="50.000000"/>

   <edge id="test_31_2i" from="test_31_2" to="test_31" numLanes="2" speed="25.000000" length="50.000000"/>
   <edge id="test_31_2o" from="test_31" to="test_31_2" numLanes="2" speed="25.000000" length="50.000000"/>

   <edge id="test_31_3i" from="test_31_3" to="test_31" numLanes="2" speed="25.000000" length="50.000000"/>
   <edge id="test_31_3o" from="test_31" to="test_31_3" numLanes="2" speed="25.000000" length="50.000000"/>

   <edge id="test_32_0i" from="test_32_0" to="test_32" numLanes="2" speed="25.000000" length="50.000000"/>
   <edge id="test_32_0o" from="test_32" to="test_32_0" numLanes="2" speed="25.000000" length="50.000000"/>

   <edge id="test_32_1i" from="test_32_1" to="test_32" numLanes="2" speed="25.000000" length="50.000000"/>
   <edge id="test_32_1o" from="test_32" to="test_32_1" numLanes="2" speed="25.000000" length="50.000000"/>

   <edge id="test_32_2i" from="test_32_2" to="test_32" numLanes="2" speed="25.000000" length="50.000000"/>
   <edge id="test_32_2o" from="test_32" to="test_32_2" numLanes="2" speed="25.000000" length="50.000000"/>

   <edge id="test_32_3i" from="test_32_3" to="test_32" numLanes="2" speed="25.000000" length="50.000000"/>
   <edge id="test_32_3o" from="test_32" to="test_32_3" numLanes="2" speed="25.000000" length="50.000000"/>

   <edge id="test_33_0i" from="test_33_0" to="test_33" numLanes="2" speed="25.000000" length="50.000000"/>
   <edge id="test_33_0o" from="test_33" to="test_33_0" numLanes="2" speed="25.000000" length="50.000000"/>

   <edge id="test_33_1i" from="test_33_1" to="test_33" numLanes="2" speed="25.000000" length="50.000000"/>
   <edge id="test_33_1o" from="test_33" to="test_33_1" numLanes="2" speed="25.000000" length="50.000000"/>

   <edge id="test_33_2i" from="test_33_2" to="test_33" numLanes="2" speed="25.000000" length="50.000000"/>
   <edge id="test_33_2o" from="test_33" to="test_33_2" numLanes="2" speed="25.000000" length="50.000000"/>

   <edge id="test_33_3i" from="test_33_3" to="test_33" numLanes="2" speed="25.000000" length="50.000000"/>
   <edge id="test_33_3o" from="test_33" to="test_33_3" numLanes="2" speed="25.000000" length="50.000000"/>

   <edge id="test_34_0i" from="test_34_0" to="test_34" numLanes="2" speed="25.000000" length="50.000000"/>
   <edge id="test_34_0o" from="test_34" to="test_34_0" numLanes="2" speed="25.000000" length="50.000000"/>

   <edge id="test_34_1i" from="test_34_1" to="test_34" numLanes="2" speed="25.000000" length="50.000000"/>
   <edge id="test_34_1o" from="test_34" to="test_34_1" numLanes="2" speed="25.000000" length="50.000000"/>

   <edge id="test_34_2i" from="test_34_2" to="test_34" numLanes="2" speed="25.000000" length="50.000000"/>
   <edge id="test_34_2o" from="test_34" to="test_34_2" numLanes="2" speed="25.000000" length="50.000000"/>

   <edge id="test_34_3i" from="test_34_3" to="test_34" numLanes="2" speed="25.000000" length="50.000000"/>