<connections>
   <connection from="test_00_0i" to="test_00_3o" fromLane="0" toLane="0"/>
   <connection from="test_00_0i" to="test_00_2o" fromLane="0" toLane="0"/>
   <connection from="test_00_0i" to="test_00_2o" fromLane="1" toLane="1"/>
   <connection from="test_00_0i" to="test_00_1o" fromLane="1" toLane="1"/>
   <connection from="test_00_1i" to="test_00_0o" fromLane="0" toLane="0"/>
   <connection from="test_00_1i" to="test_00_3o" fromLane="0" toLane="0"/>
   <connection from="test_00_1i" to="test_00_3o" fromLane="1" toLane="1"/>
   <connection from="test_00_1i" to="test_00_2o" fromLane="1" toLane="1"/>
   <connection from="test_00_2i" to="test_00_1o" fromLane="0" toLane="0"/>
   <connection from="test_00_2i" to="test_00_0o" fromLane="0" toLane="0"/>
   <connection from="test_00_2i" to="test_00_0o" fromLane="1" toLane="1"/>
   <connection from="test_00_2i" to="test_00_3o" fromLane="1" toLane="1"/>
   <connection from="test_00_3i" to="test_00_2o" fromLane="0" toLane="0"/>
   <connection from="test_00_3i" to="test_00_1o" fromLane="0" toLane="0"/>
   <connection from="test_00_3i" to="test_00_1o" fromLane="1" toLane="1"/>
   <connection from="test_00_3i" to="test_00_0o" fromLane="1" toLane="1"/>
   
   <connection from="test_01_0i" to="test_01_3o" fromLane="0" toLane="0"/>
   <connection from="test_01_0i" to="test_01_2o" fromLane="0" toLane="0"/>
   <connection from="test_01_0i" to="test_01_2o" fromLane="1" toLane="1"/>
   <connection from="test_01_0i" to="test_01_1o" fromLane="1" toLane="1"/>
   <connection from="test_01_1i" to="test_01_0o" fromLane="0" toLane="0"/>
   <connection from="test_01_1i" to="test_01_3o" fromLane="0" toLane="0"/>
   <connection from="test_01_1i" to="test_01_3o" fromLane="1" toLane="1"/>
   <connection from="test_01_1i" to="test_01_2o" fromLane="1" toLane="1"/>
   <connection from="test_01_2i" to="test_01_1o" fromLane="0" toLane="0"/>
   <connection from="test_01_2i" to="test_01_0o" fromLane="0" toLane="0"/>
   <connection from="test_01_2i" to="test_01_0o" fromLane="1" toLane="1"/>
   <connection from="test_01_2i" to="test_01_3o" fromLane="1" toLane="1"/>
   <connection from="test_01_3i" to="test_01_2o" fromLane="0" toLane="0"/>
   <connection from="test_01_3i" to="test_01_1o" fromLane="0" toLane="0"/>
   <connection from="test_01_3i" to="test_01_1o" fromLane="1" toLane="1"/>
   <connection from="test_01_3i" to="test_01_0o" fromLane="1" toLane="1"/>
   
   <connection from="test_02_0i" to="test_02_3o" fromLane="0" toLane="0"/>
   <connection from="test_02_0i" to="test_02_2o" fromLane="0" toLane="0"/>
   <connection from="test_02_0i" to="test_02_2o" fromLane="1" toLane="1"/>
   <connection from="test_02_0i" to="test_02_1o" fromLane="1" toLane="1"/>
   <connection from="test_02_1i" to="test_02_0o" fromLane="0" toLane="0"/>
   <connection from="test_02_1i" to="test_02_3o" fromLane="0" toLane="0"/>
   <connection from="test_02_1i" to="test_02_3o" fromLane="1" toLane="1"/>
   <connection from="test_02_1i" to="test_02_2o" fromLane="1" toLane="1"/>
   <connection from="test_02_2i" to="test_02_1o" fromLane="0" toLane="0"/>
   <connection from="test_02_2i" to="test_02_0o" fromLane="0" toLane="0"/>
   <connection from="test_02_2i" to="test_02_0o" fromLane="1" toLane="1"/>
   <connection from="test_02_2i" to="test_02_3o" fromLane="1" toLane="1"/>
   <connection from="test_02_3i" to="test_02_2o" fromLane="0" toLane="0"/>
   <connection from="test_02_3i" to="test_02_1o" fromLane="0" toLane="0"/>
   <connection from="test_02_3i" to="test_02_1o" fromLane="1" toLane="1"/>
   <connection from="test_02_3i" to="test_02_0o" fromLane="1" toLane="1"/>
   
   <connection from="test_03_0i" to="test_03_3o" fromLane="0" toLane="0"/>
   <connection from="test_03_0i" to="test_03_2o" fromLane="0" toLane="0"/>
   <connection from="test_03_0i" to="test_03_2o" fromLane="1" toLane="1"/>
   <connection from="test_03_0i" to="test_03_1o" fromLane="1" toLane="1"/>
   <connection from="test_03_1i" to="test_03_0o" fromLane="0" toLane="0"/>
   <connection from="test_03_1i" to="test_03_3o" fromLane="0" toLane="0"/>
   <connection from="test_03_1i" to="test_03_3o" fromLane="1" toLane="1"/>
   <connection from="test_03_1i" to="test_03_2o" fromLane="1" toLane="1"/>
   <connection from="test_03_2i" to="test_03_1o" fromLane="0" toLane="0"/>
   <connection from="test_03_2i" to="test_03_0o" fromLane="0" toLane="0"/>
   <connection from="test_03_2i" to="test_03_0o" fromLane="1" toLane="1"/>
   <connection from="test_03_2i" to="test_03_3o" fromLane="1" toLane="1"/>
   <connection from="test_03_3i" to="test_03_2o" fromLane="0" toLane="0"/>
   <connection from="test_03_3i" to="test_03_1o" fromLane="0" toLane="0"/>
   <connection from="test_03_3i" to="test_03_1o" fromLane="1" toLane="1"/>
   <connection from="test_03_3i" to="test_03_0o" fromLane="1" toLane="1"/>
   
   <connection from="test_04_0i" to="test_04_3o" fromLane="0" toLane="0"/>
   <connection from="test_04_0i" to="test_04_2o" fromLane="0" toLane="0"/>
   <connection from="test_04_0i" to="test_04_2o" fromLane="1" toLane="1"/>
   <connection from="test_04_0i" to="test_04_1o" fromLane="1" toLane="1"/>
   <connection from="test_04_1i" to="test_04_0o" fromLane="0" toLane="0"/>
   <connection from="test_04_1i" to="test_04_3o" fromLane="0" toLane="0"/>
   <connection from="test_04_1i" to="test_04_3o" fromLane="1" toLane="1"/>
   <connection from="test_04_1i" to="test_04_2o" fromLane="1" toLane="1"/>
   <connection from="test_04_2i" to="test_04_1o" fromLane="0" toLane="0"/>
   <connection from="test_04_2i" to="test_04_0o" fromLane="0" toLane="0"/>
   <connection from="test_04_2i" to="test_04_0o" fromLane="1" toLane="1"/>
   <connection from="test_04_2i" to="test_04_3o" fromLane="1" toLane="1"/>
   <connection from="test_04_3i" to="test_04_2o" fromLane="0" toLane="0"/>
   <connection from="test_04_3i" to="test_04_1o" fromLane="0" toLane="0"/>
   <connection from="test_04_3i" to="test_04_1o" fromLane="1" toLane="1"/>
   <connection from="test_04_3i" to="test_04_0o" fromLane="1" toLane="1"/>
   
   <connection from="test_10_0i" to="test_10_3o" fromLane="0" toLane="0"/>
   <connection from="test_10_0i" to="test_10_2o" fromLane="0" toLane="0"/>
   <connection from="test_10_0i" to="test_10_2o" fromLane="1" toLane="1"/>
   <connection from="test_10_0i" to="test_10_1o" fromLane="1" toLane="1"/>
   <connection from="test_10_1i" to="test_10_0o" fromLane="0" toLane="0"/>
   <connection from="test_10_1i" to="test_10_3o" fromLane="0" toLane="0"/>
   <connection from="test_10_1i" to="test_10_3o" fromLane="1" toLane="1"/>
   <connection from="test_10_1i" to="test_10_2o" fromLane="1" toLane="1"/>
   <connection from="test_10_2i" to="test_10_1o" fromLane="0" toLane="0"/>
   <connection from="test_10_2i" to="test_10_0o" fromLane="0" toLane="0"/>
   <connection from="test_10_2i" to="test_10_0o" fromLane="1" toLane="1"/>
   <connection from="test_10_2i" to="test_10_3o" fromLane="1" toLane="1"/>
   <connection from="test_10_3i" to="test_10_2o" fromLane="0" toLane="0"/>
   <connection from="test_10_3i" to="test_10_1o" fromLane="0" toLane="0"/>
   <connection from="test_10_3i" to="test_10_1o" fromLane="1" toLane="1"/>
   <connection from="test_10_3i" to="test_10_0o" fromLane="1" toLane="1"/>
   
   <connection from="test_11_0i" to="test_11_3o" fromLane="0" toLane="0"/>
   <connection from="test_11_0i" to="test_11_2o" fromLane="0" toLane="0"/>
   <connection from="test_11_0i" to="test_11_2o" fromLane="1" toLane="1"/>
   <connection from="test_11_0i" to="test_11_1o" fromLane="1" toLane="1"/>
   <connection from="test_11_1i" to="test_11_0o" fromLane="0" toLane="0"/>
   <connection from="test_11_1i" to="test_11_3o" fromLane="0" toLane="0"/>
   <connection from="test_11_1i" to="test_11_3o" fromLane="1" toLane="1"/>
   <connection from="test_11_1i" to="test_11_2o" fromLane="1" toLane="1"/>
   <connection from="test_11_2i" to="test_11_1o" fromLane="0" toLane="0"/>
   <connection from="test_11_2i" to="test_11_0o" fromLane="0" toLane="0"/>
   <connection from="test_11_2i" to="test_11_0o" fromLane="1" toLane="1"/>
   <connection from="test_11_2i" to="test_11_3o" fromLane="1" toLane="1"/>
   <connection from="test_11_3i" to="test_11_2o" fromLane="0" toLane="0"/>
   <connection from="test_11_3i" to="test_11_1o" fromLane="0" toLane="0"/>
   <connection from="test_11_3i" to="test_11_1o" fromLane="1" toLane="1"/>
   <connection from="test_11_3i" to="test_11_0o" fromLane="1" toLane="1"/>
   
   <connection from="test_12_0i" to="test_12_3o" fromLane="0" toLane="0"/>
   <connection from="test_12_0i" to="test_12_2o" fromLane="0" toLane="0"/>
   <connection from="test_12_0i" to="test_12_2o" fromLane="1" toLane="1"/>
   <connection from="test_12_0i" to="test_12_1o" fromLane="1" toLane="1"/>
   <connection from="test_12_1i" to="test_12_0o" fromLane="0" toLane="0"/>
   <connection from="test_12_1i" to="test_12_3o" fromLane="0" toLane="0"/>
   <connection from="test_12_1i" to="test_12_3o" fromLane="1" toLane="1"/>
   <connection from="test_12_1i" to="test_12_2o" fromLane="1" toLane="1"/>
   <connection from="test_12_2i" to="test_12_1o" fromLane="0" toLane="0"/>
   <connection from="test_12_2i" to="test_12_0o" fromLane="0" toLane="0"/>
   <connection from="test_12_2i" to="test_12_0o" fromLane="1" toLane="1"/>
   <connection from="test_12_2i" to="test_12_3o" fromLane="1" toLane="1"/>
   <connection from="test_12_3i" to="test_12_2o" fromLane="0" toLane="0"/>
   <connection from="test_12_3i" to="test_12_1o" fromLane="0" toLane="0"/>
   <connection from="test_12_3i" to="test_12_1o" fromLane="1" toLane="1"/>
   <connection from="test_12_3i" to="test_12_0o" fromLane="1" toLane="1"/>
   
   <connection from="test_13_0i" to="test_13_3o" fromLane="0" toLane="0"/>
   <connection from="test_13_0i" to="test_13_2o" fromLane="0" toLane="0"/>
   <connection from="test_13_0i" to="test_13_2o" fromLane="1" toLane="1"/>
   <connection from="test_13_0i" to="test_13_1o" fromLane="1" toLane="1"/>
   <connection from="test_13_1i" to="test_13_0o" fromLane="0" toLane="0"/>
   <connection from="test_13_1i" to="test_13_3o" fromLane="0" toLane="0"/>
   <connection from="test_13_1i" to="test_13_3o" fromLane="1" toLane="1"/>
   <connection from="test_13_1i" to="test_13_2o" fromLane="1" toLane="1"/>
   <connection from="test_13_2i" to="test_13_1o" fromLane="0" toLane="0"/>
   <connection from="test_13_2i" to="test_13_0o" fromLane="0" toLane="0"/>
   <connection from="test_13_2i" to="test_13_0o" fromLane="1" toLane="1"/>
   <connection from="test_13_2i" to="test_13_3o" fromLane="1" toLane="1"/>
   <connection from="test_13_3i" to="test_13_2o" fromLane="0" toLane="0"/>
   <connection from="test_13_3i" to="test_13_1o" fromLane="0" toLane="0"/>
   <connection from="test_13_3i" to="test_13_1o" fromLane="1" toLane="1"/>
   <connection from="test_13_3i" to="test_13_0o" fromLane="1" toLane="1"/>
   
   <connection from="test_14_0i" to="test_14_3o" fromLane="0" toLane="0"/>
   <connection from="test_14_0i" to="test_14_2o" fromLane="0" toLane="0"/>
   <connection from="test_14_0i" to="test_14_2o" fromLane="1" toLane="1"/>
   <connection from="test_14_0i" to="test_14_1o" fromLane="1" toLane="1"/>
   <connection from="test_14_1i" to="test_14_0o" fromLane="0" toLane="0"/>
   <connection from="test_14_1i" to="test_14_3o" fromLane="0" toLane="0"/>
   <connection from="test_14_1i" to="test_14_3o" fromLane="1" toLane="1"/>
   <connection from="test_14_1i" to="test_14_2o" fromLane="1" toLane="1"/>
   <connection from="test_14_2i" to="test_14_1o" fromLane="0" toLane="0"/>
   <connection from="test_14_2i" to="test_14_0o" fromLane="0" toLane="0"/>
   <connection from="test_14_2i" to="test_14_0o" fromLane="1" toLane="1"/>
   <connection from="test_14_2i" to="test_14_3o" fromLane="1" toLane="1"/>
   <connection from="test_14_3i" to="test_14_2o" fromLane="0" toLane="0"/>
   <connection from="test_14_3i" to="test_14_1o" fromLane="0" toLane="0"/>
   <connection from="test_14_3i" to="test_14_1o" fromLane="1" toLane="1"/>
   <connection from="test_14_3i" to="test_14_0o" fromLane="1" toLane="1"/>
   
   <connection from="test_20_0i" to="test_20_3o" fromLane="0" toLane="0"/>
   <connection from="test_20_0i" to="test_20_2o" fromLane="0" toLane="0"/>
   <connection from="test_20_0i" to="test_20_2o" fromLane="1" toLane="1"/>
   <connection from="test_20_0i" to="test_20_1o" fromLane="1" toLane="1"/>
   <connection from="test_20_1i" to="test_20_0o" fromLane="0" toLane="0"/>
   <connection from="test_20_1i" to="test_20_3o" fromLane="0" toLane="0"/>
   <connection from="test_20_1i" to="test_20_3o" fromLane="1" toLane="1"/>
   <connection from="test_20_1i" to="test_20_2o" fromLane="1" toLane="1"/>
   <connection from="test_20_2i" to="test_20_1o" fromLane="0" toLane="0"/>
   <connection from="test_20_2i" to="test_20_0o" fromLane="0" toLane="0"/>
   <connection from="test_20_2i" to="test_20_0o" fromLane="1" toLane="1"/>
   <connection from="test_20_2i" to="test_20_3o" fromLane="1" toLane="1"/>
   <connection from="test_20_3i" to="test_20_2o" fromLane="0" toLane="0"/>
   <connection from="test_20_3i" to="test_20_1o" fromLane="0" toLane="0"/>
   <connection from="test_20_3i" to="test_20_1o" fromLane="1" toLane="1"/>
   <connection from="test_20_3i" to="test_20_0o" fromLane="1" toLane="1"/>
   
   <connection from="test_21_0i" to="test_21_3o" fromLane="0" toLane="0"/>
   <connection from="test_21_0i" to="test_21_2o" fromLane="0" toLane="0"/>
   <connection from="test_21_0i" to="test_21_2o" fromLane="1" toLane="1"/>
   <connection from="test_21_0i" to="test_21_1o" fromLane="1" toLane="1"/>
   <connection from="test_21_1i" to="test_21_0o" fromLane="0" toLane="0"/>
   <connection from="test_21_1i" to="test_21_3o" fromLane="0" toLane="0"/>
   <connection from="test_21_1i" to="test_21_3o" fromLane="1" toLane="1"/>
   <connection from="test_21_1i" to="test_21_2o" fromLane="1" toLane="1"/>
   <connection from="test_21_2i" to="test_21_1o" fromLane="0" toLane="0"/>
   <connection from="test_21_2i" to="test_21_0o" fromLane="0" toLane="0"/>
   <connection from="test_21_2i" to="test_21_0o" fromLane="1" toLane="1"/>
   <connection from="test_21_2i" to="test_21_3o" fromLane="1" toLane="1"/>
   <connection from="test_21_3i" to="test_21_2o" fromLane="0" toLane="0"/>
   <connection from="test_21_3i" to="test_21_1o" fromLane="0" toLane="0"/>
   <connection from="test_21_3i" to="test_21_1o" fromLane="1" toLane="1"/>
   <connection from="test_21_3i" to="test_21_0o" fromLane="1" toLane="1"/>
   
   <connection from="test_22_0i" to="test_22_3o" fromLane="0" toLane="0"/>
   <connection from="test_22_0i" to="test_22_2o" fromLane="0" toLane="0"/>
   <connection from="test_22_0i" to="test_22_2o" fromLane="1" toLane="1"/>
   <connection from="test_22_0i" to="test_22_1o" fromLane="1" toLane="1"/>
   <connection from="test_22_1i" to="test_22_0o" fromLane="0" toLane="0"/>
   <connection from="test_22_1i" to="test_22_3o" fromLane="0" toLane="0"/>
   <connection from="test_22_1i" to="test_22_3o" fromLane="1" toLane="1"/>
   <connection from="test_22_1i" to="test_22_2o" fromLane="1" toLane="1"/>
   <connection from="test_22_2i" to="test_22_1o" fromLane="0" toLane="0"/>
   <connection from="test_22_2i" to="test_22_0o" fromLane="0" toLane="0"/>
   <connection from="test_22_2i" to="test_22_0o" fromLane="1" toLane="1"/>
   <connection from="test_22_2i" to="test_22_3o" fromLane="1" toLane="1"/>
   <connection from="test_22_3i" to="test_22_2o" fromLane="0" toLane="0"/>
   <connection from="test_22_3i" to="test_22_1o" fromLane="0" toLane="0"/>
   <connection from="test_22_3i" to="test_22_1o" fromLane="1" toLane="1"/>
   <connection from="test_22_3i" to="test_22_0o" fromLane="1" toLane="1"/>
   
   <connection from="test_23_0i" to="test_23_3o" fromLane="0" toLane="0"/>
   <connection from="test_23_0i" to="test_23_2o" fromLane="0" toLane="0"/>
   <connection from="test_23_0i" to="test_23_2o" fromLane="1" toLane="1"/>
   <connection from="test_23_0i" to="test_23_1o" fromLane="1" toLane="1"/>
   <connection from="test_23_1i" to="test_23_0o" fromLane="0" toLane="0"/>
   <connection from="test_23_1i" to="test_23_3o" fromLane="0" toLane="0"/>
   <connection from="test_23_1i" to="test_23_3o" fromLane="1" toLane="1"/>
   <connection from="test_23_1i" to="test_23_2o" fromLane="1" toLane="1"/>
   <connection from="test_23_2i" to="test_23_1o" fromLane="0" toLane="0"/>
   <connection from="test_23_2i" to="test_23_0o" fromLane="0" toLane="0"/>
   <connection from="test_23_2i" to="test_23_0o" fromLane="1" toLane="1"/>
   <connection from="test_23_2i" to="test_23_3o" fromLane="1" toLane="1"/>
   <connection from="test_23_3i" to="test_23_2o" fromLane="0" toLane="0"/>
   <connection from="test_23_3i" to="test_23_1o" fromLane="0" toLane="0"/>
   <connection from="test_23_3i" to="test_23_1o" fromLane="1" toLane="1"/>
   <connection from="test_23_3i" to="test_23_0o" fromLane="1" toLane="1"/>
   
   <connection from="test_24_0i" to="test_24_3o" fromLane="0" toLane="0"/>
   <connection from="test_24_0i" to="test_24_2o" fromLane="0" toLane="0"/>
   <connection from="test_24_0i" to="test_24_2o" fromLane="1" toLane="1"/>
   <connection from="test_24_0i" to="test_24_1o" fromLane="1" toLane="1"/>
   <connection from="test_24_1i" to="test_24_0o" fromLane="0" toLane="0"/>
   <connection from="test_24_1i" to="test_24_3o" fromLane="0" toLane="0"/>
   <connection from="test_24_1i" to="test_24_3o" fromLane="1" toLane="1"/>
   <connection from="test_24_1i" to="test_24_2o" fromLane="1" toLane="1"/>
   <connection from="test_24_2i" to="test_24_1o" fromLane="0" toLane="0"/>
   <connection from="test_24_2i" to="test_24_0o" fromLane="0" toLane="0"/>
   <connection from="test_24_2i" to="test_24_0o" fromLane="1" toLane="1"/>
   <connection from="test_24_2i" to="test_24_3o" fromLane="1" toLane="1"/>
   <connection from="test_24_3i" to="test_24_2o" fromLane="0" toLane="0"/>
   <connection from="test_24_3i" to="test_24_1o" fromLane="0" toLane="0"/>
   <connection from="test_24_3i" to="test_24_1o" fromLane="1" toLane="1"/>
   <connection from="test_24_3i" to="test_24_0o" fromLane="1" toLane="1"/>
   
   <connection from="test_30_0i" to="test_30_3o" fromLane="0" toLane="0"/>
   <connection from="test_30_0i" to="test_30_2o" fromLane="0" toLane="0"/>
   <connection from="test_30_0i" to="test_30_2o" fromLane="1" toLane="1"/>
   <connection from="test_30_0i" to="test_30_1o" fromLane="1" toLane="1"/>
   <connection from="test_30_1i" to="test_30_0o" fromLane="0" toLane="0"/>
   <connection from="test_30_1i" to="test_30_3o" fromLane="0" toLane="0"/>
   <connection from="test_30_1i" to="test_30_3o" fromLane="1" toLane="1"/>
   <connection from="test_30_1i" to="test_30_2o" fromLane="1" toLane="1"/>
   <connection from="test_30_2i" to="test_30_1o" fromLane="0" toLane="0"/>
   <connection from="test_30_2i" to="test_30_0o" fromLane="0" toLane="0"/>
   <connection from="test_30_2i" to="test_30_0o" fromLane="1" toLane="1"/>
   <connection from="test_30_2i" to="test_30_3o" fromLane="1" toLane="1"/>
   <connection from="test_30_3i" to="test_30_2o" fromLane="0" toLane="0"/>
   <connection from="test_30_3i" to="test_30_1o" fromLane="0" toLane="0"/>
   <connection from="test_30_3i" to="test_30_1o" fromLane="1" toLane="1"/>
   <connection from="test_30_3i" to="test_30_0o" fromLane="1" toLane="1"/>
   
   <connection from="test_31_0i" to="test_31_3o" fromLane="0" toLane="0"/>
   <connection from="test_31_0i" to="test_31_2o" fromLane="0" toLane="0"/>
   <connection from="test_31_0i" to="test_31_2o" fromLane="1" toLane="1"/>
   <connection from="test_31_0i" to="test_31_1o" fromLane="1" toLane="1"/>
   <connection from="test_31_1i" to="test_31_0o" fromLane="0" toLane="0"/>
   <connection from="test_31_1i" to="test_31_3o" fromLane="0" toLane="0"/>
   <connection from="test_31_1i" to="test_31_3o" fromLane="1" toLane="1"/>
   <connection from="test_31_1i" to="test_31_2o" fromLane="1" toLane="1"/>
   <connection from="test_31_2i" to="test_31_1o" fromLane="0" toLane="0"/>
   <connection from="test_31_2i" to="test_31_0o" fromLane="0" toLane="0"/>
   <connection from="test_31_2i" to="test_31_0o" fromLane="1" toLane="1"/>
   <connection from="test_31_2i" to="test_31_3o" fromLane="1" toLane="1"/>
   <connection from="test_31_3i" to="test_31_2o" fromLane="0" toLane="0"/>
   <connection from="test_31_3i" to="test_31_1o" fromLane="0" toLane="0"/>
   <connection from="test_31_3i" to="test_31_1o" fromLane="1" toLane="1"/>
   <connection from="test_31_3i" to="test_31_0o" fromLane="1" toLane="1"/>
   
   <connection from="test_32_0i" to="test_32_3o" fromLane="0" toLane="0"/>
   <connection from="test_32_0i" to="test_32_2o" fromLane="0" toLane="0"/>
   <connection from="test_32_0i" to="test_32_2o" fromLane="1" toLane="1"/>
   <connection from="test_32_0i" to="test_32_1o" fromLane="1" toLane="1"/>
   <connection from="test_32_1i" to="test_32_0o" fromLane="0" toLane="0"/>
   <connection from="test_32_1i" to="test_32_3o" fromLane="0" toLane="0"/>
   <connection from="test_32_1i" to="test_32_3o" fromLane="1" toLane="1"/>
   <connection from="test_32_1i" to="test_32_2o" fromLane="1" toLane="1"/>
   <connection from="test_32_2i" to="test_32_1o" fromLane="0" toLane="0"/>
   <connection from="test_32_2i" to="test_32_0o" fromLane="0" toLane="0"/>
   <connection from="test_32_2i" to="test_32_0o" fromLane="1" toLane="1"/>
   <connection from="test_32_2i" to="test_32_3o" fromLane="1" toLane="1"/>
   <connection from="test_32_3i" to="test_32_2o" fromLane="0" toLane="0"/>
   <connection from="test_32_3i" to="test_32_1o" fromLane="0" toLane="0"/>
   <connection from="test_32_3i" to="test_32_1o" fromLane="1" toLane="1"/>
   <connection from="test_32_3i" to="test_32_0o" fromLane="1" toLane="1"/>
   
   <connection from="test_33_0i" to="test_33_3o" fromLane="0" toLane="0"/>
   <connection from="test_33_0i" to="test_33_2o" fromLane="0" toLane="0"/>
   <connection from="test_33_0i" to="test_33_2o" fromLane="1" toLane="1"/>
   <connection from="test_33_0i" to="test_33_1o" fromLane="1" toLane="1"/>
   <connection from="test_33_1i" to="test_33_0o" fromLane="0" toLane="0"/>
   <connection from="test_33_1i" to="test_33_3o" fromLane="0" toLane="0"/>
   <connection from="test_33_1i" to="test_33_3o" fromLane="1" toLane="1"/>
   <connection from="test_33_1i" to="test_33_2o" fromLane="1" toLane="1"/>
   <connection from="test_33_2i" to="test_33_1o" fromLane="0" toLane="0"/>
   <connection from="test_33_2i" to="test_33_0o" fromLane="0" toLane="0"/>
   <connection from="test_33_2i" to="test_33_0o" fromLane="1" toLane="1"/>
   <connection from="test_33_2i" to="test_33_3o" fromLane="1" toLane="1"/>
   <connection from="test_33_3i" to="test_33_2o" fromLane="0" toLane="0"/>
   <connection from="test_33_3i" to="test_33_1o" fromLane="0" toLane="0"/>
   <connection from="test_33_3i" to="test_33_1o" fromLane="1" toLane="1"/>
   <connection from="test_33_3i" to="test_33_0o" fromLane="1" toLane="1"/>
   
   <connection from="test_34_0i" to="test_34_3o" fromLane="0" toLane="0"/>
   <connection from="test_34_0i" to="test_34_2o" fromLane="0" toLane="0"/>
   <connection from="test_34_0i" to="test_34_2o" fromLane="1" toLane="1"/>
   <connection from="test_34_0i" to="test_34_1o" fromLane="1" toLane="1"/>
   <connection from="test_34_1i" to="test_34_0o" fromLane="0" toLane="0"/>
   <connection from="test_34_1i" to="test_34_3o" fromLane="0" toLane="0"/>
   <connection from="test_34_1i" to="test_34_3o" fromLane="1" toLane="1"/>
   <connection from="test_34_1i" to="test_34_2o" fromLane="1" toLane="1"/>
   <connection from="test_34_2i" to="test_34_1o" fromLane="0" toLane="0"/>
   <connection from="test_34_2i" to="test_34_0o" fromLane="0" toLane="0"/>
   <connection from="test_34_2i" to="test_34_0o" fromLane="1" toLane="1"/>
   <connection from="test_34_2i" to="test_34_3o" fromLane="1" toLane="1"/>
   <connection from="test_34_3i" to="test_34_2o" fromLane="0" toLane="0"/>
   <connection from="test_34_3i" to="test_34_1o" fromLane="0" toLane="0"/>
   <connection from="test_34_3i" to="test_34_1o" fromLane="1" toLane="1"/>
   <connection from="test_34_3i" to="test_34_0o" fromLane="1" toLane="1"/>
   
   <connection from="test_40_0i" to="test_40_3o" fromLane="0" toLane="0"/>
   <connection from="test_40_0i" to="test_40_2o" fromLane="0" toLane="0"/>
   <connection from="test_40_0i" to="test_40_2o" fromLane="1" toLane="1"/>
   <connection from="test_40_0i" to="test_40_1o" fromLane="1" toLane="1"/>
   <connection from="test_40_1i" to="test_40_0o" fromLane="0" toLane="0"/>
   <connection from="test_40_1i" to="test_40_3o" fromLane="0" toLane="0"/>
   <connection from="test_40_1i" to="test_40_3o" fromLane="1" toLane="1"/>
   <connection from="test_40_1i" to="test_40_2o" fromLane="1" toLane="1"/>
   <connection from="test_40_2i" to="test_40_1o" fromLane="0" toLane="0"/>
   <connection from="test_40_2i" to="test_40_0o" fromLane="0" toLane="0"/>
   <connection from="test_40_2i" to="test_40_0o" fromLane="1" toLane="1"/>
   <connection from="test_40_2i" to="test_40_3o" fromLane="1" toLane="1"/>
   <connection from="test_40_3i" to="test_40_2o" fromLane="0" toLane="0"/>
   <connection from="test_40_3i" to="test_40_1o" fromLane="0" toLane="0"/>
   <connection from="test_40_3i" to="test_40_1o" fromLane="1" toLane="1"/>
   <connection from="test_40_3i" to="test_40_0o" fromLane="1" toLane="1"/>
   
   <connection from="test_41_0i" to="test_41_3o" fromLane="0" toLane="0"/>
   <connection from="test_41_0i" to="test_41_2o" fromLane="0" toLane="0"/>
   <connection from="test_41_0i" to="test_41_2o" fromLane="1" toLane="1"/>
   <connection from="test_41_0i" to="test_41_1o" fromLane="1" toLane="1"/>
   <connection from="test_41_1i" to="test_41_0o" fromLane="0" toLane="0"/>
   <connection from="test_41_1i" to="test_41_3o" fromLane="0" toLane="0"/>
   <connection from="test_41_1i" to="test_41_3o" fromLane="1" toLane="1"/>
   <connection from="test_41_1i" to="test_41_2o" fromLane="1" toLane="1"/>
   <connection from="test_41_2i" to="test_41_1o" fromLane="0" toLane="0"/>
   <connection from="test_41_2i" to="test_41_0o" fromLane="0" toLane="0"/>
   <connection from="test_41_2i" to="test_41_0o" fromLane="1" toLane="1"/>
   <connection from="test_41_2i" to="test_41_3o" fromLane="1" toLane="1"/>
   <connection from="test_41_3i" to="test_41_2o" fromLane="0" toLane="0"/>
   <connection from="test_41_3i" to="test_41_1o" fromLane="0" toLane="0"/>
   <connection from="test_41_3i" to="test_41_1o" fromLane="1" toLane="1"/>
   <connection from="test_41_3i" to="test_41_0o" fromLane="1" toLane="1"/>
   
   <connection from="test_42_0i" to="test_42_3o" fromLane="0" toLane="0"/>
   <connection from="test_42_0i" to="test_42_2o" fromLane="0" toLane="0"/>
   <connection from="test_42_0i" to="test_42_2o" fromLane="1" toLane="1"/>
   <connection from="test_42_0i" to="test_42_1o" fromLane="1" toLane="1"/>
   <connection from="test_42_1i" to="test_42_0o" fromLane="0" toLane="0"/>
   <connection from="test_42_1i" to="test_42_3o" fromLane="0" toLane="0"/>
   <connection from="test_42_1i" to="test_42_3o" fromLane="1" toLane="1"/>
   <connection from="test_42_1i" to="test_42_2o" fromLane="1" toLane="1"/>
   <connection from="test_42_2i" to="test_42_1o" fromLane="0" toLane="0"/>
   <connection from="test_42_2i" to="test_42_0o" fromLane="0" toLane="0"/>
   <connection from="test_42_2i" to="test_42_0o" fromLane="1" toLane="1"/>
   <connection from="test_42_2i" to="test_42_3o" fromLane="1" toLane="1"/>
   <connection from="test_42_3i" to="test_42_2o" fromLane="0" toLane="0"/>
   <connection from="test_42_3i" to="test_42_1o" fromLane="0" toLane="0"/>
   <connection from="test_42_3i" to="test_42_1o" fromLane="1" toLane="1"/>
   <connection from="test_42_3i" to="test_42_0o" fromLane="1" toLane="1"/>
   
   <connection from="test_43_0i" to="test_43_3o" fromLane="0" toLane="0"/>
   <connection from="test_43_0i" to="test_43_2o" fromLane="0" toLane="0"/>
   <connection from="test_43_0i" to="test_43_2o" fromLane="1" toLane="1"/>
   <connection from="test_43_0i" to="test_43_1o" fromLane="1" toLane="1"/>
   <connection from="test_43_1i" to="test_43_0o" fromLane="0" toLane="0"/>
   <connection from="test_43_1i" to="test_43_3o" fromLane="0" toLane="0"/>
   <connection from="test_43_1i" to="test_43_3o" fromLane="1" toLane="1"/>
   <connection from="test_43_1i" to="test_43_2o" fromLane="1" toLane="1"/>
   <connection from="test_43_2i" to="test_43_1o" fromLane="0" toLane="0"/>
   <connection from="test_43_2i" to="test_43_0o" fromLane="0" toLane="0"/>
   <connection from="test_43_2i" to="test_43_0o" fromLane="1" toLane="1"/>
   <connection from="test_43_2i" to="test_43_3o" fromLane="1" toLane="1"/>
   <connection from="test_43_3i" to="test_43_2o" fromLane="0" toLane="0"/>
   <connection from="test_43_3i" to="test_43_1o" fromLane="0" toLane="0"/>
   <connection from="test_43_3i" to="test_43_1o" fromLane="1" toLane="1"/>
   <connection from="test_43_3i" to="test_43_0o" fromLane="1" toLane="1"/>
   
   <connection from="test_44_0i" to="test_44_3o" fromLane="0" toLane="0"/>
   <connection from="test_44_0i" to="test_44_2o" fromLane="0" toLane="0"/>
   <connection from="test_44_0i" to="test_44_2o" fromLane="1" toLane="1"/>
   <connection from="test_44_0i" to="test_44_1o" fromLane="1" toLane="1"/>
   <connection from="test_44_1i" to="test_44_0o" fromLane="0" toLane="0"/>
   <connection from="test_44_1i" to="test_44_3o" fromLane="0" toLane="0"/>
   <connection from="test_44_1i" to="test_44_3o" fromLane="1" toLane="1"/>
   <connection from="test_44_1i" to="test_44_2o" fromLane="1" toLane="1"/>
   <connection from="test_44_2i" to="test_44_1o" fromLane="0" toLane="0"/>
   <connection from="test_44_2i" to="test_44_0o" fromLane="0" toLane="0"/>
   <connection from="test_44_2i" to="test_44_0o" fromLane="1" toLane="1"/>
   <connection from="test_44_2i" to="test_44_3o" fromLane="1" toLane="1"/>
   <connection from="test_44_3i" to="test_44_2o" fromLane="0" toLane="0"/>
   <connection from="test_44_3i" to="test_44_1o" fromLane="0" toLane="0"/>