<edges>
   <edge id="test_00_0i" from="test_00_0" to="test_00" numLanes="2" speed="25.000000" length="50.000000"/>
   <edge id="test_00_0o" from="test_00" to="test_00_0" numLanes="2" speed="25.000000" length="50.000000"/>

   <edge id="test_00_1i" from="test_00_1" to="test_00" numLanes="2" speed="25.000000" length="50.000000"/>
   <edge id="test_00_1o" from="test_00" to="test_00_1" numLanes="2" speed="25.000000" length="50.000000"/>

   <edge id="test_00_2i" from="test_00_2" to="test_00" numLanes="2" speed="25.000000" length="50.000000"/>
   <edge id="test_00_2o" from="test_00" to="test_00_2" numLanes="2" speed="25.000000" length="50.000000"/>

   <edge id="test_00_3i" from="test_00_3" to="test_00" numLanes="2" speed="25.000000" length="50.000000"/>
   <edge id="test_00_3o" from="test_00" to="test_00_3" numLanes="2" speed="25.000000" length="50.000000"/>

   <edge id="test_01_0i" from="test_01_0" to="test_01" numLanes="2" speed="25.000000" length="50.000000"/>
   <edge id="test_01_0o" from="test_01" to="test_01_0" numLanes="2" speed="25.000000" length="50.000000"/>

   <edge id="test_01_1i" from="test_01_1" to="test_01" numLanes="2" speed="25.000000" length="50.000000"/>
   <edge id="test_01_1o" from="test_01" to="test_01_1" numLanes="2" speed="25.000000" length="50.000000"/>

   <edge id="test_01_2i" from="test_01_2" to="test_01" numLanes="2" speed="25.000000" length="50.000000"/>
   <edge id="test_01_2o" from="test_01" to="test_01_2" numLanes="2" speed="25.000000" length="50.000000"/>

   <edge id="test_01_3i" from="test_01_3" to="test_01" numLanes="2" speed="25.000000" length="50.000000"/>
   <edge id="test_01_3o" from="test_01" to="test_01_3" numLanes="2" speed="25.000000" length="50.000000"/>

   <edge id="test_02_0i" from="test_02_0" to="test_02" numLanes="2" speed="25.000000" length="50.000000"/>
   <edge id="test_02_0o" from="test_02" to="test_02_0" numLanes="2" speed="25.000000" length="50.000000"/>

   <edge id="test_02_1i" from="test_02_1" to="test_02" numLanes="2" speed="25.000000" length="50.000000"/>
   <edge id="test_02_1o" from="test_02" to="test_02_1" numLanes="2" speed="25.000000" length="50.000000"/>

   <edge id="test_02_2i" from="test_02_2" to="test_02" numLanes="2" speed="25.000000" length="50.000000"/>
   <edge id="test_02_2o" from="test_02" to="test_02_2" numLanes="2" speed="25.000000" length="50.000000"/>

   <edge id="test_02_3i" from="test_02_3" to="test_02" numLanes="2" speed="25.000000" length="50.000000"/>
   <edge id="test_02_3o" from="test_02" to="test_02_3" numLanes="2" speed="25.000000" length="50.000000"/>

   <edge id="test_03_0i" from="test_03_0" to="test_03" numLanes="2" speed="25.000000" length="50.000000"/>
   <edge id="test_03_0o" from="test_03" to="test_03_0" numLanes="2" speed="25.000000" length="50.000000"/>

   <edge id="test_03_1i" from="test_03_1" to="test_03" numLanes="2" speed="25.000000" length="50.000000"/>
   <edge id="test_03_1o" from="test_03" to="test_03_1" numLanes="2" speed="25.000000" length="50.000000"/>

   <edge id="test_03_2i" from="test_03_2" to="test_03" numLanes="2" speed="25.000000" length="50.000000"/>
   <edge id="test_03_2o" from="test_03" to="test_03_2" numLanes="2" speed="25.000000" length="50.000000"/>

   <edge id="test_03_3i" from="test_03_3" to="test_03" numLanes="2" speed="25.000000" length="50.000000"/>
   <edge id="test_03_3o" from="test_03" to="test_03_3" numLanes="2" speed="25.000000" length="50.000000"/>

   <edge id="test_04_0i" from="test_04_0" to="test_04" numLanes="2" speed="25.000000" length="50.000000"/>
   <edge id="test_04_0o" from="test_04" to="test_04_0" numLanes="2" speed="25.000000" length="50.000000"/>

   <edge id="test_04_1i" from="test_04_1" to="test_04" numLanes="2" speed="25.000000" length="50.000000"/>
   <edge id="test_04_1o" from="test_04" to="test_04_1" numLanes="2" speed="25.000000" length="50.000000"/>

   <edge id="test_04_2i" from="test_04_2" to="test_04" numLanes="2" speed="25.000000" length="50.000000"/>
   <edge id="test_04_2o" from="test_04" to="test_04_2" numLanes="2" speed="25.000000" length="50.000000"/>

   <edge id="test_04_3i" from="test_04_3" to="test_04" numLanes="2" speed="25.000000" length="50.000000"/>
   <edge id="test_04_3o" from="test_04" to="test_04_3" numLanes="2" speed="25.000000" length="50.000000"/>

   <edge id="test_10_0i" from="test_10_0" to="test_10" numLanes="2" speed="25.000000" length="50.000000"/>
   <edge id="test_10_0o" from="test_10" to="test_10_0" numLanes="2" speed="25.000000" length="50.000000"/>

   <edge id="test_10_1i" from="test_10_1" to="test_10" numLanes="2" speed="25.000000" length="50.000000"/>
   <edge id="test_10_1o" from="test_10" to="test_10_1" numLanes="2" speed="25.000000" length="50.000000"/>

   <edge id="test_10_2i" from="test_10_2" to="test_10" numLanes="2" speed="25.000000" length="50.000000"/>
   <edge id="test_10_2o" from="test_10" to="test_10_2" numLanes="2" speed="25.000000" length="50.000000"/>

   <edge id="test_10_3i" from="test_10_3" to="test_10" numLanes="2" speed="25.000000" length="50.000000"/>
   <edge id="test_10_3o" from="test_10" to="test_10_3" numLanes="2" speed="25.000000" length="50.000000"/>

   <edge id="test_11_0i" from="test_11_0" to="test_11" numLanes="2" speed="25.000000" length="50.000000"/>
   <edge id="test_11_0o" from="test_11" to="test_11_0" numLanes="2" speed="25.000000" length="50.000000"/>

   <edge id="test_11_1i" from="test_11_1" to="test_11" numLanes="2" speed="25.000000" length="50.000000"/>
   <edge id="test_11_1o" from="test_11" to="test_11_1" numLanes="2" speed="25.000000" length="50.000000"/>

   <edge id="test_11_2i" from="test_11_2" to="test_11" numLanes="2" speed="25.000000" length="50.000000"/>
   <edge id="test_11_2o" from="test_11" to="test_11_2" numLanes="2" speed="25.000000" length="50.000000"/>

   <edge id="test_11_3i" from="test_11_3" to="test_11" numLanes="2" speed="25.000000" length="50.000000"/>
   <edge id="test_11_3o" from="test_11" to="test_11_3" numLanes="2" speed="25.000000" length="50.000000"/>

   <edge id="test_12_0i" from="test_12_0" to="test_12" numLanes="2" speed="25.000000" length="50.000000"/>
   <edge id="test_12_0o" from="test_12" to="test_12_0" numLanes="2" speed="25.000000" length="50.000000"/>

   <edge id="test_12_1i" from="test_12_1" to="test_12" numLanes="2" speed="25.000000" length="50.000000"/>
   <edge id="test_12_1o" from="test_12" to="test_12_1" numLanes="2" speed="25.000000" length="50.000000"/>

   <edge id="test_12_2i" from="test_12_2" to="test_12" numLanes="2" speed="25.000000" length="50.000000"/>
   <edge id="test_12_2o" from="test_12" to="test_12_2" numLanes="2" speed="25.000000" length="50.000000"/>

   <edge id="test_12_3i" from="test_12_3" to="test_12" numLanes="2" speed="25.000000" length="50.000000"/>
   <edge id="test_12_3o" from="test_12" to="test_12_3" numLanes="2" speed="25.000000" length="50.000000"/>

   <edge id="test_13_0i" from="test_13_0" to="test_13" numLanes="2" speed="25.000000" length="50.000000"/>
   <edge id="test_13_0o" from="test_13" to="test_13_0" numLanes="2" speed="25.000000" length="50.000000"/>

   <edge id="test_13_1i" from="test_13_1" to="test_13" numLanes="2" speed="25.000000" length="50.000000"/>
   <edge id="test_13_1o" from="test_13" to="test_13_1" numLanes="2" speed="25.000000" length="50.000000"/>

   <edge id="test_13_2i" from="test_13_2" to="test_13" numLanes="2" speed="25.000000" length="50.000000"/>
   <edge id="test_13_2o" from="test_13" to="test_13_2" numLanes="2" speed="25.000000" length="50.000000"/>

   <edge id="test_13_3i" from="test_13_3" to="test_13" numLanes="2" speed="25.000000" length="50.000000"/>
   <edge id="test_13_3o" from="test_13" to="test_13_3" numLanes="2" speed="25.000000" length="50.000000"/>

   <edge id="test_14_0i" from="test_14_0" to="test_14" numLanes="2" speed="25.000000" length="50.000000"/>
   <edge id="test_14_0o" from="test_14" to="test_14_0" numLanes="2" speed="25.000000" length="50.000000"/>

   <edge id="test_14_1i" from="test_14_1" to="test_14" numLanes="2" speed="25.000000" length="50.000000"/>
   <edge id="test_14_1o" from="test_14" to="test_14_1" numLanes="2" speed="25.000000" length="50.000000"/>

   <edge id="test_14_2i" from="test_14_2" to="test_14" numLanes="2" speed="25.000000" length="50.000000"/>
   <edge id="test_14_2o" from="test_14" to="test_14_2" numLanes="2" speed="25.000000" length="50.000000"/>

   <edge id="test_14_3i" from="test_14_3" to="test_14" numLanes="2" speed="25.000000" length="50.000000"/>
   <edge id="test_14_3o" from="test_14" to="test_14_3" numLanes="2" speed="25.000000" length="50.000000"/>

   <edge id="test_20_0i" from="test_20_0" to="test_20" numLanes="2" speed="25.000000" length="50.000000"/>
   <edge id="test_20_0o" from="test_20" to="test_20_0" numLanes="2" speed="25.000000" length="50.000000"/>

   <edge id="test_20_1i" from="test_20_1" to="test_20" numLanes="2" speed="25.000000" length="50.000000"/>
   <edge id="test_20_1o" from="test_20" to="test_20_1" numLanes="2" speed="25.000000" length="50.000000"/>

   <edge id="test_20_2i" from="test_20_2" to="test_20" numLanes="2" speed="25.000000" length="50.000000"/>
   <edge id="test_20_2o" from="test_20" to="test_20_2" numLanes="2" speed="25.000000" length="50.000000"/>

   <edge id="test_20_3i" from="test_20_3" to="test_20" numLanes="2" speed="25.000000" length="50.000000"/>
   <edge id="test_20_3o" from="test_20" to="test_20_3" numLanes="2" speed="25.000000" length="50.000000"/>

   <edge id="test_21_0i" from="test_21_0" to="test_21" numLanes="2" speed="25.000000" length="50.000000"/>
   <edge id="test_21_0o" from="test_21" to="test_21_0" numLanes="2" speed="25.000000" length="50.000000"/>

   <edge id="test_21_1i" from="test_21_1" to="test_21" numLanes="2" speed="25.000000" length="50.000000"/>
   <edge id="test_21_1o" from="test_21" to="test_21_1" numLanes="2" speed="25.000000" length="50.000000"/>

   <edge id="test_21_2i" from="test_21_2" to="test_21" numLanes="2" speed="25.000000" length="50.000000"/>
   <edge id="test_21_2o" from="test_21" to="test_21_2" numLanes="2" speed="25.000000" length="50.000000"/>

   <edge id="test_21_3i" from="test_21_3" to="test_21" numLanes="2" speed="25.000000" length="50.000000"/>
   <edge id="test_21_3o" from="test_21" to="test_21_3" numLanes="2" speed="25.000000" length="50.000000"/>

   <edge id="test_22_0i" from="test_22_0" to="test_22" numLanes="2" speed="25.000000" length="50.000000"/>
   <edge id="test_22_0o" from="test_22" to="test_22_0" numLanes="2" speed="25.000000" length="50.000000"/>

   <edge id="test_22_1i" from="test_22_1" to="test_22" numLanes="2" speed="25.000000" length="50.000000"/>
   <edge id="test_22_1o" from="test_22" to="test_22_1" numLanes="2" speed="25.000000" length="50.000000"/>

   <edge id="test_22_2i" from="test_22_2" to="test_22" numLanes="2" speed="25.000000" length="50.000000"/>
   <edge id="test_22_2o" from="test_22" to="test_22_2" numLanes="2" speed="25.000000" length="50.000000"/>

   <edge id="test_22_3i" from="test_22_3" to="test_22" numLanes="2" speed="25.000000" length="50.000000"/>
   <edge id="test_22_3o" from="test_22" to="test_22_3" numLanes="2" speed="25.000000" length="50.000000"/>

   <edge id="test_23_0i" from="test_23_0" to="test_23" numLanes="2" speed="25.000000" length="50.000000"/>
   <edge id="test_23_0o" from="test_23" to="test_23_0" numLanes="2" speed="25.000000" length="50.000000"/>

   <edge id="test_23_1i" from="test_23_1" to="test_23" numLanes="2" speed="25.000000" length="50.000000"/>
   <edge id="test_23_1o" from="test_23" to="test_23_1" numLanes="2" speed="25.000000" length="50.000000"/>

   <edge id="test_23_2i" from="test_23_2" to="test_23" numLanes="2" speed="25.000000" length="50.000000"/>
   <edge id="test_23_2o" from="test_23" to="test_23_2" numLanes="2" speed="25.000000" length="50.000000"/>

   <edge id="test_23_3i" from="test_23_3" to="test_23" numLanes="2" speed="25.000000" length="50.000000"/>
   <edge id="test_23_3o" from="test_23" to="test_23_3" numLanes="2" speed="25.000000" length="50.000000"/>

   <edge id="test_24_0i" from="test_24_0" to="test_24" numLanes="2" speed="25.000000" length="50.000000"/>
   <edge id="test_24_0o" from="test_24" to="test_24_0" numLanes="2" speed="25.000000" length="50.000000"/>

   <edge id="test_24_1i" from="test_24_1" to="test_24" numLanes="2" speed="25.000000" length="50.000000"/>
   <edge id="test_24_1o" from="test_24" to="test_24_1" numLanes="2" speed="25.000000" length="50.000000"/>

   <edge id="test_24_2i" from="test_24_2" to="test_24" numLanes="2" speed="25.000000" length="50.000000"/>
   <edge id="test_24_2o" from="test_24" to="test_24_2" numLanes="2" speed="25.000000" length="50.000000"/>

   <edge id="test_24_3i" from="test_24_3" to="test_24" numLanes="2" speed="25.000000" length="50.000000"/>
   <edge id="test_24_3o" from="test_24" to="test_24_3" numLanes="2" speed="25.000000" length="50.000000"/>

   <edge id="test_30_0i" from="test_30_0" to="test_30" numLanes="2" speed="25.000000" length="50.000000"/>
   <edge id="test_30_0o" from="test_30" to="test_30_0" numLanes="2" speed="25.000000" length="50.000000"/>

   <edge id="test_30_1i" from="test_30_1" to="test_30" numLanes="2" speed="25.000000" length="50.000000"/>
   <edge id="test_30_1o" from="test_30" to="test_30_1" numLanes="2" speed="25.000000" length="50.000000"/>

   <edge id="test_30_2i" from="test_30_2" to="test_30" numLanes="2" speed="25.000000" length="50.000000"/>
   <edge id="test_30_2o" from="test_30" to="test_30_2" numLanes="2" speed="25.000000" length="50.000000"/>

   <edge id="test_30_3i" from="test_30_3" to="test_30" numLanes="2" speed="25.000000" length="50.000000"/>
   <edge id="test_30_3o" from="test_30" to="test_30_3" numLanes="2" speed="25.000000" length="50.000000"/>

   <edge id="test_31_0i" from="test_31_0" to="test_31" numLanes="2" speed="25.000000" length="50.000000"/>
   <edge id="test_31_0o" from="test_31" to="test_31_0" numLanes="2" speed="25.000000" length="50.000000"/>

   <edge id="test_31_1i" from="test_31_1" to="test_31" numLanes="2" speed="25.000000" length="50.000000"/>
   <edge id="test_31_1o" from="test_31" to="test_31_1" numLanes="2" speed="25.000000" length="50.000000"/>

   <edge id="test_31_2i" from="test_31_2" to="test_31" numLanes="2" speed="25.000000" length="50.000000"/>
   <edge id="test_31_2o" from="test_31" to="test_31_2" numLanes="2" speed="25.000000" length="50.000000"/>

   <edge id="test_31_3i" from="test_31_3" to="test_31" numLanes="2" speed="25.000000" length="50.000000"/>
   <edge id="test_31_3o" from="test_31" to="test_31_3" numLanes="2" speed="25.000000" length="50.000000"/>

   <edge id="test_32_0i" from="test_32_0" to="test_32" numLanes="2" speed="25.000000" length="50.000000"/>
   <edge id="test_32_0o" from="test_32" to="test_32_0" numLanes="2" speed="25.000000" length="50.000000"/>

   <edge id="test_32_1i" from="test_32_1" to="test_32" numLanes="2" speed="25.000000" length="50.000000"/>
   <edge id="test_32_1o" from="test_32" to="test_32_1" numLanes="2" speed="25.000000" length="50.000000"/>

   <edge id="test_32_2i" from="test_32_2" to="test_32" numLanes="2" speed="25.000000" length="50.000000"/>
   <edge id="test_32_2o" from="test_32" to="test_32_2" numLanes="2" speed="25.000000" length="50.000000"/>

   <edge id="test_32_3i" from="test_32_3" to="test_32" numLanes="2" speed="25.000000" length="50.000000"/>
   <edge id="test_32_3o" from="test_32" to="test_32_3" numLanes="2" speed="25.000000" length="50.000000"/>

   <edge id="test_33_0i" from="test_33_0" to="test_33" numLanes="2" speed="25.000000" length="50.000000"/>
   <edge id="test_33_0o" from="test_33" to="test_33_0" numLanes="2" speed="25.000000" length="50.000000"/>

   <edge id="test_33_1i" from="test_33_1" to="test_33" numLanes="2" speed="25.000000" length="50.000000"/>
   <edge id="test_33_1o" from="test_33" to="test_33_1" numLanes="2" speed="25.000000" length="50.000000"/>

   <edge id="test_33_2i" from="test_33_2" to="test_33" numLanes="2" speed="25.000000" length="50.000000"/>
   <edge id="test_33_2o" from="test_33" to="test_33_2" numLanes="2" speed="25.000000" length="50.000000"/>

   <edge id="test_33_3i" from="test_33_3" to="test_33" numLanes="2" speed="25.000000" length="50.000000"/>
   <edge id="test_33_3o" from="test_33" to="test_33_3" numLanes="2" speed="25.000000" length="50.000000"/>

   <edge id="test_34_0i" from="test_34_0" to="test_34" numLanes="2" speed="25.000000" length="50.000000"/>
   <edge id="test_34_0o" from="test_34" to="test_34_0" numLanes="2" speed="25.000000" length="50.000000"/>

   <edge id="test_34_1i" from="test_34_1" to="test_34" numLanes="2" speed="25.000000" length="50.000000"/>
   <edge id="test_34_1o" from="test_34" to="test_34_1" numLanes="2" speed="25.000000" length="50.000000"/>

   <edge id="test_34_2i" from="test_34_2" to="test_34" numLanes="2" speed="25.000000" length="50.000000"/>
   <edge id="test_34_2o" from="test_34" to="test_34_2" numLanes="2" speed="25.000000" length="50.000000"/>

   <edge id="test_34_3i" from="test_34_3" to="test_34" numLanes="2" speed="25.000000" length="50.000000"/>
   <edge id="test_34_3o" from="test_34" to="test_34_3" numLanes="2" speed="25.000000" length="50.000000"/>

   <edge id="test_40_0i" from="test_40_0" to="test_40" numLanes="2" speed="25.000000" length="50.000000"/>
   <edge id="test_40_0o" from="test_40" to="test_40_0" numLanes="2" speed="25.000000" length="50.000000"/>

   <edge id="test_40_1i" from="test_40_1" to="test_40" numLanes="2" speed="25.000000" length="50.000000"/>
   <edge id="test_40_1o" from="test_40" to="test_40_1" numLanes="2" speed="25.000000" length="50.000000"/>

   <edge id="test_40_2i" from="test_40_2" to="test_40" numLanes="2" speed="25.000000" length="50.000000"/>
   <edge id="test_40_2o" from="test_40" to="test_40_2" numLanes="2" speed="25.000000" length="50.000000"/>

   <edge id="test_40_3i" from="test_40_3" to="test_40" numLanes="2" speed="25.000000" length="50.000000"/>
   <edge id="test_40_3o" from="test_40" to="test_40_3" numLanes="2" speed="25.000000" length="50.000000"/>

   <edge id="test_41_0i" from="test_41_0" to="test_41" numLanes="2" speed="25.000000" length="50.000000"/>
   <edge id="test_41_0o" from="test_41" to="test_41_0" numLanes="2" speed="25.000000" length="50.000000"/>

   <edge id="test_41_1i" from="test_41_1" to="test_41" numLanes="2" speed="25.000000" length="50.000000"/>
   <edge id="test_41_1o" from="test_41" to="test_41_1" numLanes="2" speed="25.000000" length="50.000000"/>

   <edge id="test_41_2i" from="test_41_2" to="test_41" numLanes="2" speed="25.000000" length="50.000000"/>
   <edge id="test_41_2o" from="test_41" to="test_41_2" numLanes="2" speed="25.000000" length="50.000000"/>

   <edge id="test_41_3i" from="test_41_3" to="test_41" numLanes="2" speed="25.000000" length="50.000000"/>
   <edge id="test_41_3o" from="test_41" to="test_41_3" numLanes="2" speed="25.000000" length="50.000000"/>

   <edge id="test_42_0i" from="test_42_0" to="test_42" numLanes="2" speed="25.000000" length="50.000000"/>
   <edge id="test_42_0o" from="test_42" to="test_42_0" numLanes="2" speed="25.000000" length="50.000000"/>

   <edge id="test_42_1i" from="test_42_1" to="test_42" numLanes="2" speed="25.000000" length="50.000000"/>
   <edge id="test_42_1o" from="test_42" to="test_42_1" numLanes="2" speed="25.000000" length="50.000000"/>

   <edge id="test_42_2i" from="test_42_2" to="test_42" numLanes="2" speed="25.000000" length="50.000000"/>
   <edge id="test_42_2o" from="test_42" to="test_42_2" numLanes="2" speed="25.000000" length="50.000000"/>

   <edge id="test_42_3i" from="test_42_3" to="test_42" numLanes="2" speed="25.000000" length="50.000000"/>
   <edge id="test_42_3o" from="test_42" to="test_42_3" numLanes="2" speed="25.000000" length="50.000000"/>

   <edge id="test_43_0i" from="test_43_0" to="test_43" numLanes="2" speed="25.000000" length="50.000000"/>
   <edge id="test_43_0o" from="test_43" to="test_43_0" numLanes="2" speed="25.000000" length="50.000000"/>

   <edge id="test_43_1i" from="test_43_1" to="test_43" numLanes="2" speed="25.000000" length="50.000000"/>
   <edge id="test_43_1o" from="test_43" to="test_43_1" numLanes="2" speed="25.000000" length="50.000000"/>

   <edge id="test_43_2i" from="test_43_2" to="test_43" numLanes="2" speed="25.000000" length="50.000000"/>
   <edge id="test_43_2o" from="test_43" to="test_43_2" numLanes="2" speed="25.000000" length="50.000000"/>

   <edge id="test_43_3i" from="test_43_3" to="test_43" numLanes="2" speed="25.000000" length="50.000000"/>
   <edge id="test_43_3o" from="test_43" to="test_43_3" numLanes="2" speed="25.000000" length="50.000000"/>

   <edge id="test_44_0i" from="test_44_0" to="test_44" numLanes="2" speed="25.000000" length="50.000000"/>
   <edge id="test_44_0o" from="test_44" to="test_44_0" numLanes="2" speed="25.000000" length="50.000000"/>

   <edge id="test_44_1i" from="test_44_1" to="test_44" numLanes="2" speed="25.000000" length="50.000000"/>
   <edge id="test_44_1o" from="test_44" to="test_44_1" numLanes="2" speed="25.000000" length="50.000000"/>

   <edge id="test_44_2i" from="test_44_2" to="test_44" numLanes="2" speed="25.000000" length="50.000000"/>
   <edge id="test_44_2o" from="test_44" to="test_44_2" numLanes="2" speed="25.000000" length="50.000000"/>

   <edge id="test_44_3i" from="test_44_3" to="test_44" numLanes="2" speed="25.000000" length="50.000000"/>
   <edge id="test_44_3o" from="test_44" to="test_44_3" numLanes="2" speed="25.000000" length="50.000000"/>

   <edge id="r00-01_test_00_test_01" from="test_00_0" to="test_01_2" numLanes="2" speed="60.000000" length="100.000000"/>
   <edge id="r00-01_test_01_test_00" from="test_01_2" to="test_00_0" numLanes="2" speed="60.000000" length="100.000000"/>

   <edge id="r00-10_test_00_test_10" from="test_00_1" to="test_10_3" numLanes="2" speed="60.000000" length="100.000000"/>
   <edge id="r00-10_test_10_test_00" from="test_10_3" to="test_00_1" numLanes="2" speed="60.000000" length="100.000000"/>

   <edge id="r01-02_test_01_test_02" from="test_01_0" to="test_02_2" numLanes="2" speed="60.000000" length="100.000000"/>
   <edge id="r01-02_test_02_test_01" from="test_02_2" to="test_01_0" numLanes="2" speed="60.000000" length="100.000000"/>

   <edge id="r01-11_test_01_test_11" from="test_01_1" to="test_11_3" numLanes="2" speed="60.000000" length="100.000000"/>
   <edge id="r01-11_test_11_test_01" from="test_11_3" to="test_01_1" numLanes="2" speed="60.000000" length="100.000000"/>

   <edge id="r02-03_test_02_test_03" from="test_02_0" to="test_03_2" numLanes="2" speed="60.000000" length="100.000000"/>
   <edge id="r02-03_test_03_test_02" from="test_03_2" to="test_02_0" numLanes="2" speed="60.000000" length="100.000000"/>

   <edge id="r02-12_test_02_test_12" from="test_02_1" to="test_12_3" numLanes="2" speed="60.000000" length="100.000000"/>
   <edge id="r02-12_test_12_test_02" from="test_12_3" to="test_02_1" numLanes="2" speed="60.000000" length="100.000000"/>

   <edge id="r03-04_test_03_test_04" from="test_03_0" to="test_04_2" numLanes="2" speed="60.000000" length="100.000000"/>
   <edge id="r03-04_test_04_test_03" from="test_04_2" to="test_03_0" numLanes="2" speed="60.000000" length="100.000000"/>

   <edge id="r03-13_test_03_test_13" from="test_03_1" to="test_13_3" numLanes="2" speed="60.000000" length="100.000000"/>
   <edge id="r03-13_test_13_test_03" from="test_13_3" to="test_03_1" numLanes="2" speed="60.000000" length="100.000000"/>

   <edge id="r04-14_test_04_test_14" from="test_04_1" to="test_14_3" numLanes="2" speed="60.000000" length="100.000000"/>
   <edge id="r04-14_test_14_test_04" from="test_14_3" to="test_04_1" numLanes="2" speed="60.000000" length="100.000000"/>

   <edge id="r10-11_test_10_test_11" from="test_10_0" to="test_11_2" numLanes="2" speed="60.000000" length="100.000000"/>
   <edge id="r10-11_test_11_test_10" from="test_11_2" to="test_10_0" numLanes="2" speed="60.000000" length="100.000000"/>

   <edge id="r10-20_test_10_test_20" from="test_10_1" to="test_20_3" numLanes="2" speed="60.000000" length="100.000000"/>
   <edge id="r10-20_test_20_test_10" from="test_20_3" to="test_10_1" numLanes="2" speed="60.000000" length="100.000000"/>

   <edge id="r11-12_test_11_test_12" from="test_11_0" to="test_12_2" numLanes="2" speed="60.000000" length="100.000000"/>
   <edge id="r11-12_test_12_test_11" from="test_12_2" to="test_11_0" numLanes="2" speed="60.000000" length="100.000000"/>

   <edge id="r11-21_test_11_test_21" from="test_11_1" to="test_21_3" numLanes="2" speed="60.000000" length="100.000000"/>
   <edge id="r11-21_test_21_test_11" from="test_21_3" to="test_11_1" numLanes="2" speed="60.000000" length="100.000000"/>

   <edge id="r12-13_test_12_test_13" from="test_12_0" to="test_13_2" numLanes="2" speed="60.000000" length="100.000000"/>
   <edge id="r12-13_test_13_test_12" from="test_13_2" to="test_12_0" numLanes="2" speed="60.000000" length="100.000000"/>

   <edge id="r12-22_test_12_test_22" from="test_12_1" to="test_22_3" numLanes="2" speed="60.000000" length="100.000000"/>
   <edge id="r12-22_test_22_test_12" from="test_22_3" to="test_12_1" numLanes="2" speed="60.000000" length="100.000000"/>

   <edge id="r13-14_test_13_test_14" from="test_13_0" to="test_14_2" numLanes="2" speed="60.000000" length="100.000000"/>
   <edge id="r13-14_test_14_test_13" from="test_14_2" to="test_13_0" numLanes="2" speed="60.000000" length="100.000000"/>

   <edge id="r13-23_test_13_test_23" from="test_13_1" to="test_23_3" numLanes="2" speed="60.000000" length="100.000000"/>
   <edge id="r13-23_test_23_test_13" from="test_23_3" to="test_13_1" numLanes="2" speed="60.000000" length="100.000000"/>

   <edge id="r14-24_test_14_test_24" from="test_14_1" to="test_24_3" numLanes="2" speed="60.000000" length="100.000000"/>
   <edge id="r14-24_test_24_test_14" from="test_24_3" to="test_14_1" numLanes="2" speed="60.000000" length="100.000000"/>

   <edge id="r20-21_test_20_test_21" from="test_20_0" to="test_21_2" numLanes="2" speed="60.000000" length="100.000000"/>
   <edge id="r20-21_test_21_test_20" from="test_21_2" to="test_20_0" numLanes="2" speed="60.000000" length="100.000000"/>

   <edge id="r20-30_test_20_test_30" from="test_20_1" to="test_30_3" numLanes="2" speed="60.000000" length="100.000000"/>
   <edge id="r20-30_test_30_test_20" from="test_30_3" to="test_20_1" numLanes="2" speed="60.000000" length="100.000000"/>

   <edge id="r21-22_test_21_test_22" from="test_21_0" to="test_22_2" numLanes="2" speed="60.000000" length="100.000000"/>
   <edge id="r21-22_test_22_test_21" from="test_22_2" to="test_21_0" numLanes="2" speed="60.000000" length="100.000000"/>

   <edge id="r21-31_test_21_test_31" from="test_21_1" to="test_31_3" numLanes="2" speed="60.000000" length="100.000000"/>
   <edge id="r21-31_test_31_test_21" from="test_31_3" to="test_21_1" numLanes="2" speed="60.000000" length="100.000000"/>

   <edge id="r22-23_test_22_test_23" from="test_22_0" to="test_23_2" numLanes="2" speed="60.000000" length="100.000000"/>
   <edge id="r22-23_test_23_test_22" from="test_23_2" to="test_22_0" numLanes="2" speed="60.000000" length="100.000000"/>

   <edge id="r22-32_test_22_test_32" from="test_22_1" to="test_32_3" numLanes="2" speed="60.000000" length="100.000000"/>
   <edge id="r22-32_test_32_test_22" from="test_32_3" to="test_22_1" numLanes="2" speed="60.000000" length="100.000000"/>

   <edge id="r23-24_test_23_test_24" from="test_23_0" to="test_24_2" numLanes="2" speed="60.000000" length="100.000000"/>
   <edge id="r23-24_test_24_test_23" from="test_24_2" to="test_23_0" numLanes="2" speed="60.000000" length="100.000000"/>

   <edge id="r23-33_test_23_test_33" from="test_23_1" to="test_33_3" numLanes="2" speed="60.000000" length="100.000000"/>
   <edge id="r23-33_test_33_test_23" from="test_33_3" to="test_23_1" numLanes="2" speed="60.000000" length="100.000000"/>

   <edge id="r24-34_test_24_test_34" from="test_24_1" to="test_34_3" numLanes="2" speed="60.000000" length="100.000000"/>
   <edge id="r24-34_test_34_test_24" from="test_34_3" to="test_24_1" numLanes="2" speed="60.000000" length="100.000000"/>

   <edge id="r30-31_test_30_test_31" from="test_30_0" to="test_31_2" numLanes="2" speed="60.000000" length="100.000000"/>
   <edge id="r30-31_test_31_test_30" from="test_31_2" to="test_30_0" numLanes="2" speed="60.000000" length="100.000000"/>

   <edge id="r30-40_test_30_test_40" from="test_30_1" to="test_40_3" numLanes="2" speed="60.000000" length="100.000000"/>
   <edge id="r30-40_test_40_test_30" from="test_40_3" to="test_30_1" numLanes="2" speed="60.000000" length="100.000000"/>

   <edge id="r31-32_test_31_test_32" from="test_31_0" to="test_32_2" numLanes="2" speed="60.000000" length="100.000000"/>
   <edge id="r31-32_test_32_test_31" from="test_32_2" to="test_31_0" numLanes="2" speed="60.000000" length="100.000000"/>

   <edge id="r31-41_test_31_test_41" from="test_31_1" to="test_41_3" numLanes="2" speed="60.000000" length="100.000000"/>
   <edge id="r31-41_test_41_test_31" from="test_41_3" to="test_31_1" numLanes="2" speed="60.000000" length="100.000000"/>

   <edge id="r32-33_test_32_test_33" from="test_32_0" to="test_33_2" numLanes="2" speed="60.000000" length="100.000000"/>
   <edge id="r32-33_test_33_test_32" from="test_33_2" to="test_32_0" numLanes="2" speed="60.000000" length="100.000000"/>

   <edge id="r32-42_test_32_test_42" from="test_32_1" to="test_42_3" numLanes="2" speed="60.000000" length="100.000000"/>
   <edge id="r32-42_test_42_test_32" from="test_42_3" to="test_32_1" numLanes="2" speed="60.000000" length="100.000000"/>

   <edge id="r33-34_test_33_test_34" from="test_33_0" to="test_34_2" numLanes="2" speed="60.000000" length="100.000000"/>
   <edge id="r33-34_test_34_test_33" from="test_34_2" to="test_33_0" numLanes="2" speed="60.000000" length="100.000000"/>

   <edge id="r33-43_test_33_test_43" from="test_33_1" to="test_43_3" numLanes="2" speed="60.000000" length="100.000000"/>