<connections>
   <connection from="test_00_0i" to="test_00_3o" fromLane="0" toLane="0"/>
   <connection from="test_00_0i" to="test_00_2o" fromLane="0" toLane="0"/>
   <connection from="test_00_0i" to="test_00_2o" fromLane="1" toLane="1"/>
   <connection from="test_00_0i" to="test_00_1o" fromLane="1" toLane="1"/>
   <connection from="test_00_1i" to="test_00_0o" fromLane="0" toLane="0"/>
   <connection from="test_00_1i" to="test_00_3o" fromLane="0" toLane="0"/>
   <connection from="test_00_1i" to="test_00_3o" fromLane="1" toLane="1"/>
   <connection from="test_00_1i" to="test_00_2o" fromLane="1" toLane="1"/>
   <connection from="test_00_2i" to="test_00_1o" fromLane="0" toLane="0"/>
   <connection from="test_00_2i" to="test_00_0o" fromLane="0" toLane="0"/>
   <connection from="test_00_2i" to="test_00_0o" fromLane="1" toLane="1"/>
   <connection from="test_00_2i" to="test_00_3o" fromLane="1" toLane="1"/>
   <connection from="test_00_3i" to="test_00_2o" fromLane="0" toLane="0"/>
   <connection from="test_00_3i" to="test_00_1o" fromLane="0" toLane="0"/>
   <connection from="test_00_3i" to="test_00_1o" fromLane="1" toLane="1"/>
   <connection from="test_00_3i" to="test_00_0o" fromLane="1" toLane="1"/>
   
   <connection from="test_01_0i" to="test_01_3o" fromLane="0" toLane="0"/>
   <connection from="test_01_0i" to="test_01_2o" fromLane="0" toLane="0"/>
   <connection from="test_01_0i" to="test_01_2o" fromLane="1" toLane="1"/>
   <connection from="test_01_0i" to="test_01_1o" fromLane="1" toLane="1"/>
   <connection from="test_01_1i" to="test_01_0o" fromLane="0" toLane="0"/>
   <connection from="test_01_1i" to="test_01_3o" fromLane="0" toLane="0"/>
   <connection from="test_01_1i" to="test_01_3o" fromLane="1" toLane="1"/>
   <connection from="test_01_1i" to="test_01_2o" fromLane="1" toLane="1"/>
   <connection from="test_01_2i" to="test_01_1o" fromLane="0" toLane="0"/>
   <connection from="test_01_2i" to="test_01_0o" fromLane="0" toLane="0"/>
   <connection from="test_01_2i" to="test_01_0o" fromLane="1" toLane="1"/>
   <connection from="test_01_2i" to="test_01_3o" fromLane="1" toLane="1"/>
   <connection from="test_01_3i" to="test_01_2o" fromLane="0" toLane="0"/>
   <connection from="test_01_3i" to="test_01_1o" fromLane="0" toLane="0"/>
   <connection from="test_01_3i" to="test_01_1o" fromLane="1" toLane="1"/>
   <connection from="test_01_3i" to="test_01_0o" fromLane="1" toLane="1"/>
   
   <connection from="test_02_0i" to="test_02_3o" fromLane="0" toLane="0"/>
   <connection from="test_02_0i" to="test_02_2o" fromLane="0" toLane="0"/>
   <connection from="test_02_0i" to="test_02_2o" fromLane="1" toLane="1"/>
   <connection from="test_02_0i" to="test_02_1o" fromLane="1" toLane="1"/>
   <connection from="test_02_1i" to="test_02_0o" fromLane="0" toLane="0"/>
   <connection from="test_02_1i" to="test_02_3o" fromLane="0" toLane="0"/>
   <connection from="test_02_1i" to="test_02_3o" fromLane="1" toLane="1"/>
   <connection from="test_02_1i" to="test_02_2o" fromLane="1" toLane="1"/>
   <connection from="test_02_2i" to="test_02_1o" fromLane="0" toLane="0"/>
   <connection from="test_02_2i" to="test_02_0o" fromLane="0" toLane="0"/>
   <connection from="test_02_2i" to="test_02_0o" fromLane="1" toLane="1"/>
   <connection from="test_02_2i" to="test_02_3o" fromLane="1" toLane="1"/>
   <connection from="test_02_3i" to="test_02_2o" fromLane="0" toLane="0"/>
   <connection from="test_02_3i" to="test_02_1o" fromLane="0" toLane="0"/>
   <connection from="test_02_3i" to="test_02_1o" fromLane="1" toLane="1"/>
   <connection from="test_02_3i" to="test_02_0o" fromLane="1" toLane="1"/>
   
   <connection from="test_03_0i" to="test_03_3o" fromLane="0" toLane="0"/>
   <connection from="test_03_0i" to="test_03_2o" fromLane="0" toLane="0"/>
   <connection from="test_03_0i" to="test_03_2o" fromLane="1" toLane="1"/>
   <connection from="test_03_0i" to="test_03_1o" fromLane="1" toLane="1"/>
   <connection from="test_03_1i" to="test_03_0o" fromLane="0" toLane="0"/>
   <connection from="test_03_1i" to="test_03_3o" fromLane="0" toLane="0"/>
   <connection from="test_03_1i" to="test_03_3o" fromLane="1" toLane="1"/>
   <connection from="test_03_1i" to="test_03_2o" fromLane="1" toLane="1"/>
   <connection from="test_03_2i" to="test_03_1o" fromLane="0" toLane="0"/>
   <connection from="test_03_2i" to="test_03_0o" fromLane="0" toLane="0"/>
   <connection from="test_03_2i" to="test_03_0o" fromLane="1" toLane="1"/>
   <connection from="test_03_2i" to="test_03_3o" fromLane="1" toLane="1"/>
   <connection from="test_03_3i" to="test_03_2o" fromLane="0" toLane="0"/>
   <connection from="test_03_3i" to="test_03_1o" fromLane="0" toLane="0"/>
   <connection from="test_03_3i" to="test_03_1o" fromLane="1" toLane="1"/>
   <connection from="test_03_3i" to="test_03_0o" fromLane="1" toLane="1"/>
   
   <connection from="test_04_0i" to="test_04_3o" fromLane="0" toLane="0"/>
   <connection from="test_04_0i" to="test_04_2o" fromLane="0" toLane="0"/>
   <connection from="test_04_0i" to="test_04_2o" fromLane="1" toLane="1"/>
   <connection from="test_04_0i" to="test_04_1o" fromLane="1" toLane="1"/>
   <connection from="test_04_1i" to="test_04_0o" fromLane="0" toLane="0"/>
   <connection from="test_04_1i" to="test_04_3o" fromLane="0" toLane="0"/>
   <connection from="test_04_1i" to="test_04_3o" fromLane="1" toLane="1"/>
   <connection from="test_04_1i" to="test_04_2o" fromLane="1" toLane="1"/>
   <connection from="test_04_2i" to="test_04_1o" fromLane="0" toLane="0"/>
   <connection from="test_04_2i" to="test_04_0o" fromLane="0" toLane="0"/>
   <connection from="test_04_2i" to="test_04_0o" fromLane="1" toLane="1"/>
   <connection from="test_04_2i" to="test_04_3o" fromLane="1" toLane="1"/>
   <connection from="test_04_3i" to="test_04_2o" fromLane="0" toLane="0"/>
   <connection from="test_04_3i" to="test_04_1o" fromLane="0" toLane="0"/>
   <connection from="test_04_3i" to="test_04_1o" fromLane="1" toLane="1"/>
   <connection from="test_04_3i" to="test_04_0o" fromLane="1" toLane="1"/>
   
   <connection from="test_05_0i" to="test_05_3o" fromLane="0" toLane="0"/>
   <connection from="test_05_0i" to="test_05_2o" fromLane="0" toLane="0"/>
   <connection from="test_05_0i" to="test_05_2o" fromLane="1" toLane="1"/>
   <connection from="test_05_0i" to="test_05_1o" fromLane="1" toLane="1"/>
   <connection from="test_05_1i" to="test_05_0o" fromLane="0" toLane="0"/>
   <connection from="test_05_1i" to="test_05_3o" fromLane="0" toLane="0"/>
   <connection from="test_05_1i" to="test_05_3o" fromLane="1" toLane="1"/>
   <connection from="test_05_1i" to="test_05_2o" fromLane="1" toLane="1"/>
   <connection from="test_05_2i" to="test_05_1o" fromLane="0" toLane="0"/>
   <connection from="test_05_2i" to="test_05_0o" fromLane="0" toLane="0"/>
   <connection from="test_05_2i" to="test_05_0o" fromLane="1" toLane="1"/>
   <connection from="test_05_2i" to="test_05_3o" fromLane="1" toLane="1"/>
   <connection from="test_05_3i" to="test_05_2o" fromLane="0" toLane="0"/>
   <connection from="test_05_3i" to="test_05_1o" fromLane="0" toLane="0"/>
   <connection from="test_05_3i" to="test_05_1o" fromLane="1" toLane="1"/>
   <connection from="test_05_3i" to="test_05_0o" fromLane="1" toLane="1"/>
   
   <connection from="test_06_0i" to="test_06_3o" fromLane="0" toLane="0"/>
   <connection from="test_06_0i" to="test_06_2o" fromLane="0" toLane="0"/>
   <connection from="test_06_0i" to="test_06_2o" fromLane="1" toLane="1"/>
   <connection from="test_06_0i" to="test_06_1o" fromLane="1" toLane="1"/>
   <connection from="test_06_1i" to="test_06_0o" fromLane="0" toLane="0"/>
   <connection from="test_06_1i" to="test_06_3o" fromLane="0" toLane="0"/>
   <connection from="test_06_1i" to="test_06_3o" fromLane="1" toLane="1"/>
   <connection from="test_06_1i" to="test_06_2o" fromLane="1" toLane="1"/>
   <connection from="test_06_2i" to="test_06_1o" fromLane="0" toLane="0"/>
   <connection from="test_06_2i" to="test_06_0o" fromLane="0" toLane="0"/>
   <connection from="test_06_2i" to="test_06_0o" fromLane="1" toLane="1"/>
   <connection from="test_06_2i" to="test_06_3o" fromLane="1" toLane="1"/>
   <connection from="test_06_3i" to="test_06_2o" fromLane="0" toLane="0"/>
   <connection from="test_06_3i" to="test_06_1o" fromLane="0" toLane="0"/>
   <connection from="test_06_3i" to="test_06_1o" fromLane="1" toLane="1"/>
   <connection from="test_06_3i" to="test_06_0o" fromLane="1" toLane="1"/>
   
   <connection from="test_07_0i" to="test_07_3o" fromLane="0" toLane="0"/>
   <connection from="test_07_0i" to="test_07_2o" fromLane="0" toLane="0"/>
   <connection from="test_07_0i" to="test_07_2o" fromLane="1" toLane="1"/>
   <connection from="test_07_0i" to="test_07_1o" fromLane="1" toLane="1"/>
   <connection from="test_07_1i" to="test_07_0o" fromLane="0" toLane="0"/>
   <connection from="test_07_1i" to="test_07_3o" fromLane="0" toLane="0"/>
   <connection from="test_07_1i" to="test_07_3o" fromLane="1" toLane="1"/>
   <connection from="test_07_1i" to="test_07_2o" fromLane="1" toLane="1"/>
   <connection from="test_07_2i" to="test_07_1o" fromLane="0" toLane="0"/>
   <connection from="test_07_2i" to="test_07_0o" fromLane="0" toLane="0"/>
   <connection from="test_07_2i" to="test_07_0o" fromLane="1" toLane="1"/>
   <connection from="test_07_2i" to="test_07_3o" fromLane="1" toLane="1"/>
   <connection from="test_07_3i" to="test_07_2o" fromLane="0" toLane="0"/>
   <connection from="test_07_3i" to="test_07_1o" fromLane="0" toLane="0"/>
   <connection from="test_07_3i" to="test_07_1o" fromLane="1" toLane="1"/>
   <connection from="test_07_3i" to="test_07_0o" fromLane="1" toLane="1"/>
   
   <connection from="test_08_0i" to="test_08_3o" fromLane="0" toLane="0"/>
   <connection from="test_08_0i" to="test_08_2o" fromLane="0" toLane="0"/>
   <connection from="test_08_0i" to="test_08_2o" fromLane="1" toLane="1"/>
   <connection from="test_08_0i" to="test_08_1o" fromLane="1" toLane="1"/>
   <connection from="test_08_1i" to="test_08_0o" fromLane="0" toLane="0"/>
   <connection from="test_08_1i" to="test_08_3o" fromLane="0" toLane="0"/>
   <connection from="test_08_1i" to="test_08_3o" fromLane="1" toLane="1"/>
   <connection from="test_08_1i" to="test_08_2o" fromLane="1" toLane="1"/>
   <connection from="test_08_2i" to="test_08_1o" fromLane="0" toLane="0"/>
   <connection from="test_08_2i" to="test_08_0o" fromLane="0" toLane="0"/>
   <connection from="test_08_2i" to="test_08_0o" fromLane="1" toLane="1"/>
   <connection from="test_08_2i" to="test_08_3o" fromLane="1" toLane="1"/>
   <connection from="test_08_3i" to="test_08_2o" fromLane="0" toLane="0"/>
   <connection from="test_08_3i" to="test_08_1o" fromLane="0" toLane="0"/>
   <connection from="test_08_3i" to="test_08_1o" fromLane="1" toLane="1"/>
   <connection from="test_08_3i" to="test_08_0o" fromLane="1" toLane="1"/>
   
   <connection from="test_09_0i" to="test_09_3o" fromLane="0" toLane="0"/>
   <connection from="test_09_0i" to="test_09_2o" fromLane="0" toLane="0"/>
   <connection from="test_09_0i" to="test_09_2o" fromLane="1" toLane="1"/>
   <connection from="test_09_0i" to="test_09_1o" fromLane="1" toLane="1"/>
   <connection from="test_09_1i" to="test_09_0o" fromLane="0" toLane="0"/>
   <connection from="test_09_1i" to="test_09_3o" fromLane="0" toLane="0"/>
   <connection from="test_09_1i" to="test_09_3o" fromLane="1" toLane="1"/>
   <connection from="test_09_1i" to="test_09_2o" fromLane="1" toLane="1"/>
   <connection from="test_09_2i" to="test_09_1o" fromLane="0" toLane="0"/>
   <connection from="test_09_2i" to="test_09_0o" fromLane="0" toLane="0"/>
   <connection from="test_09_2i" to="test_09_0o" fromLane="1" toLane="1"/>
   <connection from="test_09_2i" to="test_09_3o" fromLane="1" toLane="1"/>
   <connection from="test_09_3i" to="test_09_2o" fromLane="0" toLane="0"/>
   <connection from="test_09_3i" to="test_09_1o" fromLane="0" toLane="0"/>
   <connection from="test_09_3i" to="test_09_1o" fromLane="1" toLane="1"/>
   <connection from="test_09_3i" to="test_09_0o" fromLane="1" toLane="1"/>
   
   <connection from="test_10_0i" to="test_10_3o" fromLane="0" toLane="0"/>
   <connection from="test_10_0i" to="test_10_2o" fromLane="0" toLane="0"/>
   <connection from="test_10_0i" to="test_10_2o" fromLane="1" toLane="1"/>
   <connection from="test_10_0i" to="test_10_1o" fromLane="1" toLane="1"/>
   <connection from="test_10_1i" to="test_10_0o" fromLane="0" toLane="0"/>
   <connection from="test_10_1i" to="test_10_3o" fromLane="0" toLane="0"/>
   <connection from="test_10_1i" to="test_10_3o" fromLane="1" toLane="1"/>
   <connection from="test_10_1i" to="test_10_2o" fromLane="1" toLane="1"/>
   <connection from="test_10_2i" to="test_10_1o" fromLane="0" toLane="0"/>
   <connection from="test_10_2i" to="test_10_0o" fromLane="0" toLane="0"/>
   <connection from="test_10_2i" to="test_10_0o" fromLane="1" toLane="1"/>
   <connection from="test_10_2i" to="test_10_3o" fromLane="1" toLane="1"/>
   <connection from="test_10_3i" to="test_10_2o" fromLane="0" toLane="0"/>
   <connection from="test_10_3i" to="test_10_1o" fromLane="0" toLane="0"/>
   <connection from="test_10_3i" to="test_10_1o" fromLane="1" toLane="1"/>
   <connection from="test_10_3i" to="test_10_0o" fromLane="1" toLane="1"/>
   
   <connection from="test_11_0i" to="test_11_3o" fromLane="0" toLane="0"/>
   <connection from="test_11_0i" to="test_11_2o" fromLane="0" toLane="0"/>
   <connection from="test_11_0i" to="test_11_2o" fromLane="1" toLane="1"/>
   <connection from="test_11_0i" to="test_11_1o" fromLane="1" toLane="1"/>
   <connection from="test_11_1i" to="test_11_0o" fromLane="0" toLane="0"/>
   <connection from="test_11_1i" to="test_11_3o" fromLane="0" toLane="0"/>
   <connection from="test_11_1i" to="test_11_3o" fromLane="1" toLane="1"/>
   <connection from="test_11_1i" to="test_11_2o" fromLane="1" toLane="1"/>
   <connection from="test_11_2i" to="test_11_1o" fromLane="0" toLane="0"/>
   <connection from="test_11_2i" to="test_11_0o" fromLane="0" toLane="0"/>
   <connection from="test_11_2i" to="test_11_0o" fromLane="1" toLane="1"/>
   <connection from="test_11_2i" to="test_11_3o" fromLane="1" toLane="1"/>
   <connection from="test_11_3i" to="test_11_2o" fromLane="0" toLane="0"/>
   <connection from="test_11_3i" to="test_11_1o" fromLane="0" toLane="0"/>
   <connection from="test_11_3i" to="test_11_1o" fromLane="1" toLane="1"/>
   <connection from="test_11_3i" to="test_11_0o" fromLane="1" toLane="1"/>
   
   <connection from="test_12_0i" to="test_12_3o" fromLane="0" toLane="0"/>
   <connection from="test_12_0i" to="test_12_2o" fromLane="0" toLane="0"/>
   <connection from="test_12_0i" to="test_12_2o" fromLane="1" toLane="1"/>
   <connection from="test_12_0i" to="test_12_1o" fromLane="1" toLane="1"/>
   <connection from="test_12_1i" to="test_12_0o" fromLane="0" toLane="0"/>
   <connection from="test_12_1i" to="test_12_3o" fromLane="0" toLane="0"/>
   <connection from="test_12_1i" to="test_12_3o" fromLane="1" toLane="1"/>
   <connection from="test_12_1i" to="test_12_2o" fromLane="1" toLane="1"/>
   <connection from="test_12_2i" to="test_12_1o" fromLane="0" toLane="0"/>
   <connection from="test_12_2i" to="test_12_0o" fromLane="0" toLane="0"/>
   <connection from="test_12_2i" to="test_12_0o" fromLane="1" toLane="1"/>
   <connection from="test_12_2i" to="test_12_3o" fromLane="1" toLane="1"/>
   <connection from="test_12_3i" to="test_12_2o" fromLane="0" toLane="0"/>
   <connection from="test_12_3i" to="test_12_1o" fromLane="0" toLane="0"/>
   <connection from="test_12_3i" to="test_12_1o" fromLane="1" toLane="1"/>
   <connection from="test_12_3i" to="test_12_0o" fromLane="1" toLane="1"/>
   
   <connection from="test_13_0i" to="test_13_3o" fromLane="0" toLane="0"/>
   <connection from="test_13_0i" to="test_13_2o" fromLane="0" toLane="0"/>
   <connection from="test_13_0i" to="test_13_2o" fromLane="1" toLane="1"/>
   <connection from="test_13_0i" to="test_13_1o" fromLane="1" toLane="1"/>
   <connection from="test_13_1i" to="test_13_0o" fromLane="0" toLane="0"/>
   <connection from="test_13_1i" to="test_13_3o" fromLane="0" toLane="0"/>
   <connection from="test_13_1i" to="test_13_3o" fromLane="1" toLane="1"/>
   <connection from="test_13_1i" to="test_13_2o" fromLane="1" toLane="1"/>
   <connection from="test_13_2i" to="test_13_1o" fromLane="0" toLane="0"/>
   <connection from="test_13_2i" to="test_13_0o" fromLane="0" toLane="0"/>
   <connection from="test_13_2i" to="test_13_0o" fromLane="1" toLane="1"/>
   <connection from="test_13_2i" to="test_13_3o" fromLane="1" toLane="1"/>
   <connection from="test_13_3i" to="test_13_2o" fromLane="0" toLane="0"/>
   <connection from="test_13_3i" to="test_13_1o" fromLane="0" toLane="0"/>
   <connection from="test_13_3i" to="test_13_1o" fromLane="1" toLane="1"/>
   <connection from="test_13_3i" to="test_13_0o" fromLane="1" toLane="1"/>
   
   <connection from="test_14_0i" to="test_14_3o" fromLane="0" toLane="0"/>
   <connection from="test_14_0i" to="test_14_2o" fromLane="0" toLane="0"/>
   <connection from="test_14_0i" to="test_14_2o" fromLane="1" toLane="1"/>
   <connection from="test_14_0i" to="test_14_1o" fromLane="1" toLane="1"/>
   <connection from="test_14_1i" to="test_14_0o" fromLane="0" toLane="0"/>
   <connection from="test_14_1i" to="test_14_3o" fromLane="0" toLane="0"/>
   <connection from="test_14_1i" to="test_14_3o" fromLane="1" toLane="1"/>
   <connection from="test_14_1i" to="test_14_2o" fromLane="1" toLane="1"/>
   <connection from="test_14_2i" to="test_14_1o" fromLane="0" toLane="0"/>
   <connection from="test_14_2i" to="test_14_0o" fromLane="0" toLane="0"/>
   <connection from="test_14_2i" to="test_14_0o" fromLane="1" toLane="1"/>
   <connection from="test_14_2i" to="test_14_3o" fromLane="1" toLane="1"/>
   <connection from="test_14_3i" to="test_14_2o" fromLane="0" toLane="0"/>
   <connection from="test_14_3i" to="test_14_1o" fromLane="0" toLane="0"/>
   <connection from="test_14_3i" to="test_14_1o" fromLane="1" toLane="1"/>
   <connection from="test_14_3i" to="test_14_0o" fromLane="1" toLane="1"/>
   
   <connection from="test_15_0i" to="test_15_3o" fromLane="0" toLane="0"/>
   <connection from="test_15_0i" to="test_15_2o" fromLane="0" toLane="0"/>
   <connection from="test_15_0i" to="test_15_2o" fromLane="1" toLane="1"/>
   <connection from="test_15_0i" to="test_15_1o" fromLane="1" toLane="1"/>
   <connection from="test_15_1i" to="test_15_0o" fromLane="0" toLane="0"/>
   <connection from="test_15_1i" to="test_15_3o" fromLane="0" toLane="0"/>
   <connection from="test_15_1i" to="test_15_3o" fromLane="1" toLane="1"/>
   <connection from="test_15_1i" to="test_15_2o" fromLane="1" toLane="1"/>
   <connection from="test_15_2i" to="test_15_1o" fromLane="0" toLane="0"/>
   <connection from="test_15_2i" to="test_15_0o" fromLane="0" toLane="0"/>
   <connection from="test_15_2i" to="test_15_0o" fromLane="1" toLane="1"/>
   <connection from="test_15_2i" to="test_15_3o" fromLane="1" toLane="1"/>
   <connection from="test_15_3i" to="test_15_2o" fromLane="0" toLane="0"/>
   <connection from="test_15_3i" to="test_15_1o" fromLane="0" toLane="0"/>
   <connection from="test_15_3i" to="test_15_1o" fromLane="1" toLane="1"/>
   <connection from="test_15_3i" to="test_15_0o" fromLane="1" toLane="1"/>
   
   <connection from="test_16_0i" to="test_16_3o" fromLane="0" toLane="0"/>
   <connection from="test_16_0i" to="test_16_2o" fromLane="0" toLane="0"/>
   <connection from="test_16_0i" to="test_16_2o" fromLane="1" toLane="1"/>
   <connection from="test_16_0i" to="test_16_1o" fromLane="1" toLane="1"/>
   <connection from="test_16_1i" to="test_16_0o" fromLane="0" toLane="0"/>
   <connection from="test_16_1i" to="test_16_3o" fromLane="0" toLane="0"/>
   <connection from="test_16_1i" to="test_16_3o" fromLane="1" toLane="1"/>
   <connection from="test_16_1i" to="test_16_2o" fromLane="1" toLane="1"/>
   <connection from="test_16_2i" to="test_16_1o" fromLane="0" toLane="0"/>
   <connection from="test_16_2i" to="test_16_0o" fromLane="0" toLane="0"/>
   <connection from="test_16_2i" to="test_16_0o" fromLane="1" toLane="1"/>
   <connection from="test_16_2i" to="test_16_3o" fromLane="1" toLane="1"/>
   <connection from="test_16_3i" to="test_16_2o" fromLane="0" toLane="0"/>
   <connection from="test_16_3i" to="test_16_1o" fromLane="0" toLane="0"/>
   <connection from="test_16_3i" to="test_16_1o" fromLane="1" toLane="1"/>
   <connection from="test_16_3i" to="test_16_0o" fromLane="1" toLane="1"/>
   
   <connection from="test_17_0i" to="test_17_3o" fromLane="0" toLane="0"/>
   <connection from="test_17_0i" to="test_17_2o" fromLane="0" toLane="0"/>
   <connection from="test_17_0i" to="test_17_2o" fromLane="1" toLane="1"/>
   <connection from="test_17_0i" to="test_17_1o" fromLane="1" toLane="1"/>
   <connection from="test_17_1i" to="test_17_0o" fromLane="0" toLane="0"/>
   <connection from="test_17_1i" to="test_17_3o" fromLane="0" toLane="0"/>
   <connection from="test_17_1i" to="test_17_3o" fromLane="1" toLane="1"/>
   <connection from="test_17_1i" to="test_17_2o" fromLane="1" toLane="1"/>
   <connection from="test_17_2i" to="test_17_1o" fromLane="0" toLane="0"/>
   <connection from="test_17_2i" to="test_17_0o" fromLane="0" toLane="0"/>
   <connection from="test_17_2i" to="test_17_0o" fromLane="1" toLane="1"/>
   <connection from="test_17_2i" to="test_17_3o" fromLane="1" toLane="1"/>
   <connection from="test_17_3i" to="test_17_2o" fromLane="0" toLane="0"/>
   <connection from="test_17_3i" to="test_17_1o" fromLane="0" toLane="0"/>
   <connection from="test_17_3i" to="test_17_1o" fromLane="1" toLane="1"/>
   <connection from="test_17_3i" to="test_17_0o" fromLane="1" toLane="1"/>
   
   <connection from="test_18_0i" to="test_18_3o" fromLane="0" toLane="0"/>
   <connection from="test_18_0i" to="test_18_2o" fromLane="0" toLane="0"/>
   <connection from="test_18_0i" to="test_18_2o" fromLane="1" toLane="1"/>
   <connection from="test_18_0i" to="test_18_1o" fromLane="1" toLane="1"/>
   <connection from="test_18_1i" to="test_18_0o" fromLane="0" toLane="0"/>
   <connection from="test_18_1i" to="test_18_3o" fromLane="0" toLane="0"/>
   <connection from="test_18_1i" to="test_18_3o" fromLane="1" toLane="1"/>
   <connection from="test_18_1i" to="test_18_2o" fromLane="1" toLane="1"/>
   <connection from="test_18_2i" to="test_18_1o" fromLane="0" toLane="0"/>
   <connection from="test_18_2i" to="test_18_0o" fromLane="0" toLane="0"/>
   <connection from="test_18_2i" to="test_18_0o" fromLane="1" toLane="1"/>
   <connection from="test_18_2i" to="test_18_3o" fromLane="1" toLane="1"/>
   <connection from="test_18_3i" to="test_18_2o" fromLane="0" toLane="0"/>
   <connection from="test_18_3i" to="test_18_1o" fromLane="0" toLane="0"/>
   <connection from="test_18_3i" to="test_18_1o" fromLane="1" toLane="1"/>
   <connection from="test_18_3i" to="test_18_0o" fromLane="1" toLane="1"/>
   
   <connection from="test_19_0i" to="test_19_3o" fromLane="0" toLane="0"/>
   <connection from="test_19_0i" to="test_19_2o" fromLane="0" toLane="0"/>
   <connection from="test_19_0i" to="test_19_2o" fromLane="1" toLane="1"/>
   <connection from="test_19_0i" to="test_19_1o" fromLane="1" toLane="1"/>
   <connection from="test_19_1i" to="test_19_0o" fromLane="0" toLane="0"/>
   <connection from="test_19_1i" to="test_19_3o" fromLane="0" toLane="0"/>
   <connection from="test_19_1i" to="test_19_3o" fromLane="1" toLane="1"/>
   <connection from="test_19_1i" to="test_19_2o" fromLane="1" toLane="1"/>
   <connection from="test_19_2i" to="test_19_1o" fromLane="0" toLane="0"/>
   <connection from="test_19_2i" to="test_19_0o" fromLane="0" toLane="0"/>
   <connection from="test_19_2i" to="test_19_0o" fromLane="1" toLane="1"/>
   <connection from="test_19_2i" to="test_19_3o" fromLane="1" toLane="1"/>
   <connection from="test_19_3i" to="test_19_2o" fromLane="0" toLane="0"/>
   <connection from="test_19_3i" to="test_19_1o" fromLane="0" toLane="0"/>
   <connection from="test_19_3i" to="test_19_1o" fromLane="1" toLane="1"/>
   <connection from="test_19_3i" to="test_19_0o" fromLane="1" toLane="1"/>
   
   <connection from="test_20_0i" to="test_20_3o" fromLane="0" toLane="0"/>
   <connection from="test_20_0i" to="test_20_2o" fromLane="0" toLane="0"/>
   <connection from="test_20_0i" to="test_20_2o" fromLane="1" toLane="1"/>
   <connection from="test_20_0i" to="test_20_1o" fromLane="1" toLane="1"/>
   <connection from="test_20_1i" to="test_20_0o" fromLane="0" toLane="0"/>
   <connection from="test_20_1i" to="test_20_3o" fromLane="0" toLane="0"/>
   <connection from="test_20_1i" to="test_20_3o" fromLane="1" toLane="1"/>
   <connection from="test_20_1i" to="test_20_2o" fromLane="1" toLane="1"/>
   <connection from="test_20_2i" to="test_20_1o" fromLane="0" toLane="0"/>
   <connection from="test_20_2i" to="test_20_0o" fromLane="0" toLane="0"/>
   <connection from="test_20_2i" to="test_20_0o" fromLane="1" toLane="1"/>
   <connection from="test_20_2i" to="test_20_3o" fromLane="1" toLane="1"/>
   <connection from="test_20_3i" to="test_20_2o" fromLane="0" toLane="0"/>
   <connection from="test_20_3i" to="test_20_1o" fromLane="0" toLane="0"/>
   <connection from="test_20_3i" to="test_20_1o" fromLane="1" toLane="1"/>
   <connection from="test_20_3i" to="test_20_0o" fromLane="1" toLane="1"/>
   
   <connection from="test_21_0i" to="test_21_3o" fromLane="0" toLane="0"/>
   <connection from="test_21_0i" to="test_21_2o" fromLane="0" toLane="0"/>
   <connection from="test_21_0i" to="test_21_2o" fromLane="1" toLane="1"/>
   <connection from="test_21_0i" to="test_21_1o" fromLane="1" toLane="1"/>
   <connection from="test_21_1i" to="test_21_0o" fromLane="0" toLane="0"/>
   <connection from="test_21_1i" to="test_21_3o" fromLane="0" toLane="0"/>
   <connection from="test_21_1i" to="test_21_3o" fromLane="1" toLane="1"/>
   <connection from="test_21_1i" to="test_21_2o" fromLane="1" toLane="1"/>
   <connection from="test_21_2i" to="test_21_1o" fromLane="0" toLane="0"/>
   <connection from="test_21_2i" to="test_21_0o" fromLane="0" toLane="0"/>
   <connection from="test_21_2i" to="test_21_0o" fromLane="1" toLane="1"/>
   <connection from="test_21_2i" to="test_21_3o" fromLane="1" toLane="1"/>
   <connection from="test_21_3i" to="test_21_2o" fromLane="0" toLane="0"/>
   <connection from="test_21_3i" to="test_21_1o" fromLane="0" toLane="0"/>
   <connection from="test_21_3i" to="test_21_1o" fromLane="1" toLane="1"/>
   <connection from="test_21_3i" to="test_21_0o" fromLane="1" toLane="1"/>
   
   <connection from="test_22_0i" to="test_22_3o" fromLane="0" toLane="0"/>
   <connection from="test_22_0i" to="test_22_2o" fromLane="0" toLane="0"/>
   <connection from="test_22_0i" to="test_22_2o" fromLane="1" toLane="1"/>
   <connection from="test_22_0i" to="test_22_1o" fromLane="1" toLane="1"/>
   <connection from="test_22_1i" to="test_22_0o" fromLane="0" toLane="0"/>
   <connection from="test_22_1i" to="test_22_3o" fromLane="0" toLane="0"/>
   <connection from="test_22_1i" to="test_22_3o" fromLane="1" toLane="1"/>
   <connection from="test_22_1i" to="test_22_2o" fromLane="1" toLane="1"/>
   <connection from="test_22_2i" to="test_22_1o" fromLane="0" toLane="0"/>
   <connection from="test_22_2i" to="test_22_0o" fromLane="0" toLane="0"/>
   <connection from="test_22_2i" to="test_22_0o" fromLane="1" toLane="1"/>
   <connection from="test_22_2i" to="test_22_3o" fromLane="1" toLane="1"/>
   <connection from="test_22_3i" to="test_22_2o" fromLane="0" toLane="0"/>
   <connection from="test_22_3i" to="test_22_1o" fromLane="0" toLane="0"/>
   <connection from="test_22_3i" to="test_22_1o" fromLane="1" toLane="1"/>
   <connection from="test_22_3i" to="test_22_0o" fromLane="1" toLane="1"/>
   
   <connection from="test_23_0i" to="test_23_3o" fromLane="0" toLane="0"/>
   <connection from="test_23_0i" to="test_23_2o" fromLane="0" toLane="0"/>
   <connection from="test_23_0i" to="test_23_2o" fromLane="1" toLane="1"/>
   <connection from="test_23_0i" to="test_23_1o" fromLane="1" toLane="1"/>
   <connection from="test_23_1i" to="test_23_0o" fromLane="0" toLane="0"/>
   <connection from="test_23_1i" to="test_23_3o" fromLane="0" toLane="0"/>
   <connection from="test_23_1i" to="test_23_3o" fromLane="1" toLane="1"/>
   <connection from="test_23_1i" to="test_23_2o" fromLane="1" toLane="1"/>
   <connection from="test_23_2i" to="test_23_1o" fromLane="0" toLane="0"/>
   <connection from="test_23_2i" to="test_23_0o" fromLane="0" toLane="0"/>
   <connection from="test_23_2i" to="test_23_0o" fromLane="1" toLane="1"/>
   <connection from="test_23_2i" to="test_23_3o" fromLane="1" toLane="1"/>
   <connection from="test_23_3i" to="test_23_2o" fromLane="0" toLane="0"/>
   <connection from="test_23_3i" to="test_23_1o" fromLane="0" toLane="0"/>
   <connection from="test_23_3i" to="test_23_1o" fromLane="1" toLane="1"/>
   <connection from="test_23_3i" to="test_23_0o" fromLane="1" toLane="1"/>
   
   <connection from="test_24_0i" to="test_24_3o" fromLane="0" toLane="0"/>
   <connection from="test_24_0i" to="test_24_2o" fromLane="0" toLane="0"/>
   <connection from="test_24_0i" to="test_24_2o" fromLane="1" toLane="1"/>
   <connection from="test_24_0i" to="test_24_1o" fromLane="1" toLane="1"/>
   <connection from="test_24_1i" to="test_24_0o" fromLane="0" toLane="0"/>
   <connection from="test_24_1i" to="test_24_3o" fromLane="0" toLane="0"/>
   <connection from="test_24_1i" to="test_24_3o" fromLane="1" toLane="1"/>
   <connection from="test_24_1i" to="test_24_2o" fromLane="1" toLane="1"/>
   <connection from="test_24_2i" to="test_24_1o" fromLane="0" toLane="0"/>
   <connection from="test_24_2i" to="test_24_0o" fromLane="0" toLane="0"/>
   <connection from="test_24_2i" to="test_24_0o" fromLane="1" toLane="1"/>
   <connection from="test_24_2i" to="test_24_3o" fromLane="1" toLane="1"/>
   <connection from="test_24_3i" to="test_24_2o" fromLane="0" toLane="0"/>
   <connection from="test_24_3i" to="test_24_1o" fromLane="0" toLane="0"/>