<?xml version='1.0' encoding='utf-8'?>
<routes>
    <trip id="0" depart="0.00" from="test_60_2i" to="r17-18_test_18_test_17" />
    <trip id="1" depart="0.50" from="test_07_3i" to="test_04_3o" />
    <trip id="2" depart="1.00" from="test_79_0i" to="test_69_0o" />
    <trip id="3" depart="1.50" from="test_94_1i" to="r61-62_test_61_test_62" />
    <trip id="4" depart="2.00" from="test_25_0i" to="r20-30_test_30_test_20" />
    <trip id="5" depart="2.50" from="test_04_1o" to="test_39_0o" />
    <trip id="6" depart="3.00" from="r18-19_test_19_test_18" to="test_02_3o" />
    <trip id="7" depart="3.50" from="test_63_1o" to="test_47_1i" />
    <trip id="8" depart="4.00" from="test_04_3i" to="test_52_2o" />
    <trip id="9" depart="4.50" from="test_90_1i" to="r04-05_test_05_test_04" />
    <trip id="10" depart="5.00" from="test_90_1i" to="test_70_2o" />
    <trip id="11" depart="5.50" from="test_10_2i" to="test_00_3o" />
    <trip id="12" depart="6.00" from="test_98_1i" to="test_10_2o" />
    <trip id="13" depart="6.50" from="r65-66_test_65_test_66" to="r67-77_test_77_test_67" />
    <trip id="14" depart="7.00" from="test_91_2o" to="test_57_1o" />
    <trip id="15" depart="7.50" from="test_90_1i" to="test_79_0o" />
    <trip id="16" depart="8.00" from="test_44_1o" to="test_99_0o" />
    <trip id="17" depart="8.50" from="test_19_0i" to="test_49_0o" />
    <trip id="18" depart="9.00" from="test_90_2i" to="test_59_0o" />
    <trip id="19" depart="9.50" from="test_92_1i" to="test_50_2o" />
    <trip id="20" depart="10.00" from="test_72_1i" to="r32-33_test_32_test_33" />
    <trip id="21" depart="10.50" from="test_04_3i" to="test_08_3o" />
    <trip id="22" depart="11.00" from="r55-65_test_65_test_55" to="test_04_3o" />
    <trip id="23" depart="11.50" from="r71-72_test_71_test_72" to="test_07_3o" />
    <trip id="24" depart="12.00" from="test_60_2i" to="test_15_1o" />
    <trip id="25" depart="12.50" from="test_17_1i" to="test_03_3o" />
    <trip id="26" depart="13.00" from="test_06_3i" to="test_97_1o" />
    <trip id="27" depart="13.50" from="test_62_3i" to="test_59_0o" />
    <trip id="28" depart="14.00" from="test_01_3i" to="test_79_0o" />
    <trip id="29" depart="14.50" from="test_00_3i" to="test_19_0o" />
    <trip id="30" depart="15.00" from="test_99_1i" to="test_60_2o" />
    <trip id="31" depart="15.50" from="test_49_0i" to="test_70_1i" />
    <trip id="32" depart="16.00" from="test_91_1i" to="test_86_2o" />
    <trip id="33" depart="16.50" from="test_04_3i" to="r22-32_test_22_test_32" />
    <trip id="34" depart="17.00" from="test_09_0i" to="test_06_3o" />
    <trip id="35" depart="17.50" from="test_03_3i" to="test_97_1o" />
    <trip id="36" depart="18.00" from="test_93_1i" to="test_09_0o" />
    <trip id="37" depart="18.50" from="test_65_1i" to="test_20_2o" />
    <trip id="38" depart="19.00" from="test_95_1i" to="test_30_2o" />
    <trip id="39" depart="19.50" from="test_06_3i" to="test_05_3o" />
    <trip id="40" depart="20.00" from="test_49_0i" to="test_06_3o" />
    <trip id="41" depart="20.50" from="test_51_0i" to="test_94_1o" />
    <trip id="42" depart="21.00" from="test_20_2i" to="test_04_2o" />
    <trip id="43" depart="21.50" from="test_99_1i" to="test_40_0o" />
    <trip id="44" depart="22.00" from="r63-73_test_73_test_63" to="r33-34_test_33_test_34" />
    <trip id="45" depart="22.50" from="r76-86_test_86_test_76" to="test_60_2o" />
    <trip id="46" depart="23.00" from="test_89_0i" to="test_25_0o" />
    <trip id="47" depart="23.50" from="r44-54_test_44_test_54" to="test_19_0o" />
    <trip id="48" depart="24.00" from="test_99_1i" to="test_42_0i" />
    <trip id="49" depart="24.50" from="test_99_0i" to="test_92_1o" />
    <trip id="50" depart="25.00" from="r07-17_test_07_test_17" to="test_77_2o" />
    <trip id="51" depart="25.50" from="test_69_1i" to="test_44_2o" />
    <trip id="52" depart="26.00" from="test_06_3i" to="test_60_2o" />
    <trip id="53" depart="26.50" from="r78-79_test_78_test_79" to="test_29_0o" />
    <trip id="54" depart="27.00" from="test_30_2i" to="test_98_1o" />
    <trip id="55" depart="27.50" from="test_93_1i" to="test_06_3o" />
    <trip id="56" depart="28.00" from="test_39_0i" to="test_01_3o" />
    <trip id="57" depart="28.50" from="test_95_1i" to="test_93_1o" />
    <trip id="58" depart="29.00" from="test_08_3i" to="test_60_2o" />
    <trip id="59" depart="29.50" from="test_59_0i" to="test_00_3o" />
    <trip id="60" depart="30.00" from="test_82_0o" to="test_45_1o" />
    <trip id="61" depart="30.50" from="test_87_2i" to="test_42_1o" />
    <trip id="62" depart="31.00" from="r00-01_test_01_test_00" to="test_09_3o" />
    <trip id="63" depart="31.50" from="r13-23_test_13_test_23" to="test_96_1o" />
    <trip id="64" depart="32.00" from="test_93_1i" to="test_91_0i" />
    <trip id="65" depart="32.50" from="test_09_0i" to="r40-50_test_50_test_40" />
    <trip id="66" depart="33.00" from="test_93_1i" to="test_97_1o" />
    <trip id="67" depart="33.50" from="r60-61_test_61_test_60" to="test_37_0i" />
    <trip id="68" depart="34.00" from="r48-49_test_49_test_48" to="test_81_2i" />
    <trip id="69" depart="34.50" from="test_83_1i" to="r91-92_test_91_test_92" />
    <trip id="70" depart="35.00" from="test_33_1o" to="test_48_3o" />
    <trip id="71" depart="35.50" from="test_06_3i" to="test_93_1o" />
    <trip id="72" depart="36.00" from="test_25_2i" to="test_03_3o" />
    <trip id="73" depart="36.50" from="test_45_1o" to="test_79_0o" />
    <trip id="74" depart="37.00" from="test_03_1o" to="test_09_0o" />
    <trip id="75" depart="37.50" from="test_99_1i" to="test_63_1o" />
    <trip id="76" depart="38.00" from="test_29_0i" to="test_40_2o" />
    <trip id="77" depart="38.50" from="r85-86_test_85_test_86" to="test_04_3o" />
    <trip id="78" depart="39.00" from="test_10_2i" to="test_52_1i" />
    <trip id="79" depart="39.50" from="test_04_3i" to="test_04_3o" />
    <trip id="80" depart="40.00" from="r50-51_test_50_test_51" to="test_60_2o" />
    <trip id="81" depart="40.50" from="test_04_3i" to="test_95_1o" />
    <trip id="82" depart="41.00" from="test_92_1i" to="r49-59_test_59_test_49" />
    <trip id="83" depart="41.50" from="test_05_3i" to="test_69_0o" />
    <trip id="84" depart="42.00" from="test_03_3i" to="r96-97_test_96_test_97" />
    <trip id="85" depart="42.50" from="test_97_1i" to="test_50_2o" />
    <trip id="86" depart="43.00" from="test_32_2i" to="test_89_0o" />
    <trip id="87" depart="43.50" from="test_90_1i" to="test_02_3o" />
    <trip id="88" depart="44.00" from="r67-77_test_77_test_67" to="test_28_0o" />
    <trip id="89" depart="44.50" from="test_25_2o" to="test_30_2o" />
    <trip id="90" depart="45.00" from="test_79_0i" to="test_69_0o" />
    <trip id="91" depart="45.50" from="test_99_1i" to="r68-78_test_78_test_68" />
    <trip id="92" depart="46.00" from="test_20_2i" to="test_10_2o" />
    <trip id="93" depart="46.50" from="test_92_1i" to="test_05_3o" />
    <trip id="94" depart="47.00" from="test_02_3i" to="test_29_1i" />
    <trip id="95" depart="47.50" from="test_25_0i" to="test_07_3o" />
    <trip id="96" depart="48.00" from="test_05_3i" to="test_96_1o" />
    <trip id="97" depart="48.50" from="test_29_0i" to="test_92_1o" />
    <trip id="98" depart="49.00" from="test_49_0i" to="r35-36_test_36_test_35" />
    <trip id="99" depart="49.50" from="test_99_3i" to="test_91_1o" />
    <trip id="100" depart="50.00" from="test_99_0i" to="test_96_1o" />
    <trip id="101" depart="50.50" from="test_92_0i" to="test_01_0o" />
    <trip id="102" depart="51.00" from="test_36_3o" to="test_03_3o" />
    <trip id="103" depart="51.50" from="test_20_2i" to="r41-42_test_42_test_41" />
    <trip id="104" depart="52.00" from="test_19_0i" to="test_99_1o" />
    <trip id="105" depart="52.50" from="test_06_3i" to="test_89_0o" />
    <trip id="106" depart="53.00" from="test_30_2i" to="test_25_1o" />
    <trip id="107" depart="53.50" from="test_98_1i" to="test_99_1o" />
    <trip id="108" depart="54.00" from="test_49_0i" to="test_76_3o" />
    <trip id="109" depart="54.50" from="test_00_3i" to="test_08_3o" />
    <trip id="110" depart="55.00" from="test_99_0i" to="test_50_2o" />
    <trip id="111" depart="55.50" from="test_46_1o" to="test_80_2o" />
    <trip id="112" depart="56.00" from="r40-41_test_41_test_40" to="test_50_3o" />
    <trip id="113" depart="56.50" from="test_39_0i" to="test_92_1o" />
    <trip id="114" depart="57.00" from="test_00_3i" to="test_98_1o" />
    <trip id="115" depart="57.50" from="r56-57_test_56_test_57" to="test_02_3o" />
    <trip id="116" depart="58.00" from="test_54_2i" to="test_69_0o" />
    <trip id="117" depart="58.50" from="test_05_1i" to="r84-85_test_85_test_84" />
    <trip id="118" depart="59.00" from="test_94_1i" to="test_05_3o" />
    <trip id="119" depart="59.50" from="test_54_1o" to="test_59_0o" />
    <trip id="120" depart="60.00" from="test_24_0o" to="test_50_3i" />
    <trip id="121" depart="60.50" from="test_40_2i" to="test_97_0o" />
    <trip id="122" depart="61.00" from="test_03_3i" to="test_76_0o" />
    <trip id="123" depart="61.50" from="test_05_3i" to="test_20_2o" />
    <trip id="124" depart="62.00" from="test_69_0i" to="test_08_3o" />
    <trip id="125" depart="62.50" from="test_09_0i" to="test_80_2o" />
    <trip id="126" depart="63.00" from="r51-52_test_51_test_52" to="test_30_2o" />
    <trip id="127" depart="63.50" from="test_99_1i" to="test_99_1o" />
    <trip id="128" depart="64.00" from="r51-61_test_51_test_61" to="test_03_3o" />
    <trip id="129" depart="64.50" from="test_06_3i" to="test_96_2o" />
    <trip id="130" depart="65.00" from="test_93_1i" to="test_93_1o" />
    <trip id="131" depart="65.50" from="test_17_0i" to="test_00_3o" />
    <trip id="132" depart="66.00" from="test_91_1i" to="test_71_3o" />
    <trip id="133" depart="66.50" from="test_59_0i" to="test_99_1o" />
    <trip id="134" depart="67.00" from="test_64_3i" to="r05-06_test_05_test_06" />
    <trip id="135" depart="67.50" from="test_90_2i" to="test_08_3o" />
    <trip id="136" depart="68.00" from="test_67_3o" to="test_97_1o" />
    <trip id="137" depart="68.50" from="r98-99_test_99_test_98" to="r81-82_test_82_test_81" />
    <trip id="138" depart="69.00" from="r75-76_test_75_test_76" to="test_49_0o" />
    <trip id="139" depart="69.50" from="test_07_3i" to="test_57_3i" />
    <trip id="140" depart="70.00" from="test_76_2o" to="test_03_3o" />
    <trip id="141" depart="70.50" from="test_60_2i" to="test_06_3o" />
    <trip id="142" depart="71.00" from="test_37_3o" to="test_95_1o" />
    <trip id="143" depart="71.50" from="test_91_1i" to="r64-74_test_74_test_64" />
    <trip id="144" depart="72.00" from="test_25_2o" to="test_07_3o" />
    <trip id="145" depart="72.50" from="r02-03_test_03_test_02" to="test_85_0i" />
    <trip id="146" depart="73.00" from="test_60_2i" to="test_06_3o" />
    <trip id="147" depart="73.50" from="test_79_3i" to="test_49_0o" />
    <trip id="148" depart="74.00" from="test_27_0i" to="r06-07_test_07_test_06" />
    <trip id="149" depart="74.50" from="r52-62_test_62_test_52" to="test_94_0i" />
    <trip id="150" depart="75.00" from="test_95_1i" to="test_47_2i" />
    <trip id="151" depart="75.50" from="test_91_1i" to="test_50_2o" />
    <trip id="152" depart="76.00" from="test_00_2i" to="r89-99_test_99_test_89" />
    <trip id="153" depart="76.50" from="test_09_0i" to="test_94_2o" />
    <trip id="154" depart="77.00" from="test_89_0i" to="test_92_1o" />
    <trip id="155" depart="77.50" from="test_94_2o" to="test_03_3o" />
    <trip id="156" depart="78.00" from="test_05_3i" to="r72-73_test_73_test_72" />
    <trip id="157" depart="78.50" from="test_88_0i" to="test_94_1o" />
    <trip id="158" depart="79.00" from="test_20_2i" to="test_59_0o" />
    <trip id="159" depart="79.50" from="test_00_3i" to="test_96_1o" />
    <trip id="160" depart="80.00" from="test_92_2o" to="test_99_0o" />
    <trip id="161" depart="80.50" from="test_90_1i" to="test_93_2i" />
    <trip id="162" depart="81.00" from="r17-18_test_17_test_18" to="test_79_0o" />
    <trip id="163" depart="81.50" from="test_09_3i" to="test_96_1o" />
    <trip id="164" depart="82.00" from="test_90_1i" to="test_92_1o" />
    <trip id="165" depart="82.50" from="test_90_1i" to="test_06_3o" />
    <trip id="166" depart="83.00" from="test_89_0i" to="r75-85_test_85_test_75" />
    <trip id="167" depart="83.50" from="test_93_1i" to="test_92_1o" />
    <trip id="168" depart="84.00" from="test_04_3i" to="test_90_2o" />
    <trip id="169" depart="84.50" from="test_30_2i" to="test_09_0o" />
    <trip id="170" depart="85.00" from="test_89_0i" to="test_04_3o" />
    <trip id="171" depart="85.50" from="r16-17_test_17_test_16" to="test_02_3o" />
    <trip id="172" depart="86.00" from="test_09_3i" to="test_92_2i" />
    <trip id="173" depart="86.50" from="test_98_1i" to="test_07_3o" />
    <trip id="174" depart="87.00" from="test_60_2i" to="test_20_2o" />
    <trip id="175" depart="87.50" from="test_99_0i" to="test_44_1o" />
    <trip id="176" depart="88.00" from="test_97_1i" to="r81-82_test_82_test_81" />
    <trip id="177" depart="88.50" from="test_99_0i" to="test_01_3o" />
    <trip id="178" depart="89.00" from="test_98_1i" to="test_06_3o" />
    <trip id="179" depart="89.50" from="r76-77_test_76_test_77" to="test_29_0o" />
    <trip id="180" depart="90.00" from="test_79_0i" to="test_09_0o" />
    <trip id="181" depart="90.50" from="test_58_1i" to="test_40_2o" />
    <trip id="182" depart="91.00" from="test_19_0i" to="test_50_2o" />
    <trip id="183" depart="91.50" from="test_06_3i" to="test_73_2o" />
    <trip id="184" depart="92.00" from="r01-02_test_01_test_02" to="test_96_1o" />
    <trip id="185" depart="92.50" from="test_45_0o" to="test_77_1i" />
    <trip id="186" depart="93.00" from="test_80_0i" to="test_69_0o" />
    <trip id="187" depart="93.50" from="test_15_1i" to="r48-58_test_58_test_48" />
    <trip id="188" depart="94.00" from="test_68_1i" to="test_09_3o" />
    <trip id="189" depart="94.50" from="test_09_0i" to="test_91_3i" />
    <trip id="190" depart="95.00" from="test_77_1i" to="test_08_3o" />
    <trip id="191" depart="95.50" from="test_09_0i" to="test_20_2o" />
    <trip id="192" depart="96.00" from="test_20_2i" to="test_08_3o" />
    <trip id="193" depart="96.50" from="r89-99_test_99_test_89" to="test_24_2i" />
    <trip id="194" depart="97.00" from="test_97_1i" to="test_69_0o" />
    <trip id="195" depart="97.50" from="test_95_1i" to="test_59_0o" />
    <trip id="196" depart="98.00" from="test_08_3i" to="test_48_1i" />
    <trip id="197" depart="98.50" from="r00-01_test_01_test_00" to="test_08_1i" />
    <trip id="198" depart="99.00" from="test_27_3i" to="test_50_2o" />
    <trip id="199" depart="99.50" from="test_65_0i" to="test_30_2o" />
    <trip id="200" depart="100.00" from="test_29_0i" to="test_03_3o" />
    <trip id="201" depart="100.50" from="test_32_3i" to="test_95_1o" />
    <trip id="202" depart="101.00" from="test_89_0i" to="test_01_3o" />
    <trip id="203" depart="101.50" from="r59-69_test_69_test_59" to="test_40_2o" />
    <trip id="204" depart="102.00" from="test_60_2i" to="test_10_1i" />
    <trip id="205" depart="102.50" from="test_90_2i" to="test_80_2o" />
    <trip id="206" depart="103.00" from="test_69_0i" to="test_04_3o" />
    <trip id="207" depart="103.50" from="test_02_3i" to="r16-26_test_26_test_16" />
    <trip id="208" depart="104.00" from="test_05_3i" to="test_33_1o" />
    <trip id="209" depart="104.50" from="test_92_1i" to="r51-52_test_52_test_51" />
    <trip id="210" depart="105.00" from="test_22_2i" to="test_60_2o" />
    <trip id="211" depart="105.50" from="test_02_3i" to="test_70_2o" />
    <trip id="212" depart="106.00" from="test_39_0i" to="test_05_3o" />
    <trip id="213" depart="106.50" from="test_65_2i" to="r03-13_test_03_test_13" />
    <trip id="214" depart="107.00" from="test_80_2i" to="test_84_2o" />
    <trip id="215" depart="107.50" from="r74-84_test_84_test_74" to="test_26_0o" />
    <trip id="216" depart="108.00" from="test_01_3i" to="test_98_1o" />
    <trip id="217" depart="108.50" from="test_40_2i" to="r35-36_test_35_test_36" />
    <trip id="218" depart="109.00" from="test_05_3i" to="test_91_3o" />
    <trip id="219" depart="109.50" from="test_30_2i" to="test_90_1o" />
    <trip id="220" depart="110.00" from="test_69_0i" to="test_99_1o" />
    <trip id="221" depart="110.50" from="test_54_2o" to="test_97_2i" />
    <trip id="222" depart="111.00" from="test_94_1i" to="test_59_0o" />
    <trip id="223" depart="111.50" from="test_77_0o" to="test_39_0o" />
    <trip id="224" depart="112.00" from="test_90_2i" to="test_48_1i" />
    <trip id="225" depart="112.50" from="test_94_1i" to="test_80_2o" />
    <trip id="226" depart="113.00" from="test_33_1i" to="test_06_3o" />
    <trip id="227" depart="113.50" from="test_05_3i" to="test_60_2o" />
    <trip id="228" depart="114.00" from="test_83_1i" to="test_40_2o" />
    <trip id="229" depart="114.50" from="test_60_1o" to="test_07_3o" />
    <trip id="230" depart="115.00" from="r54-55_test_55_test_54" to="test_07_3o" />
    <trip id="231" depart="115.50" from="test_07_3i" to="test_09_3o" />
    <trip id="232" depart="116.00" from="test_45_2o" to="test_00_2o" />
    <trip id="233" depart="116.50" from="test_04_3i" to="test_70_2o" />
    <trip id="234" depart="117.00" from="test_72_3o" to="r45-46_test_45_test_46" />
    <trip id="235" depart="117.50" from="test_20_2i" to="test_46_2i" />
    <trip id="236" depart="118.00" from="test_23_0i" to="test_03_3o" />
    <trip id="237" depart="118.50" from="test_24_1o" to="test_95_1o" />
    <trip id="238" depart="119.00" from="test_50_3o" to="test_70_2o" />
    <trip id="239" depart="119.50" from="test_92_1i" to="test_83_0o" />
    <trip id="240" depart="120.00" from="test_19_0i" to="r03-13_test_13_test_03" />
    <trip id="241" depart="120.50" from="test_11_0i" to="test_80_2o" />
    <trip id="242" depart="121.00" from="test_92_1i" to="test_98_1o" />
    <trip id="243" depart="121.50" from="test_24_0i" to="test_80_2o" />
    <trip id="244" depart="122.00" from="test_47_2o" to="test_57_1i" />
    <trip id="245" depart="122.50" from="test_04_3i" to="test_04_3o" />
    <trip id="246" depart="123.00" from="test_29_0i" to="r20-21_test_21_test_20" />
    <trip id="247" depart="123.50" from="test_10_2i" to="test_69_0o" />
    <trip id="248" depart="124.00" from="test_20_2i" to="test_00_3o" />
    <trip id="249" depart="124.50" from="test_30_3i" to="r90-91_test_90_test_91" />
    <trip id="250" depart="125.00" from="test_59_0i" to="r18-28_test_18_test_28" />
    <trip id="251" depart="125.50" from="test_20_1o" to="test_49_0o" />
    <trip id="252" depart="126.00" from="r18-28_test_18_test_28" to="test_61_0i" />
    <trip id="253" depart="126.50" from="test_00_1o" to="test_30_2o" />
    <trip id="254" depart="127.00" from="r35-36_test_35_test_36" to="test_19_0o" />
    <trip id="255" depart="127.50" from="test_03_3i" to="test_09_3o" />
    <trip id="256" depart="128.00" from="test_81_3i" to="test_19_0o" />
    <trip id="257" depart="128.50" from="test_80_2i" to="test_91_0o" />
    <trip id="258" depart="129.00" from="test_06_1i" to="r57-58_test_58_test_57" />
    <trip id="259" depart="129.50" from="r13-14_test_14_test_13" to="test_45_1o" />
    <trip id="260" depart="130.00" from="test_99_3o" to="test_10_2o" />
    <trip id="261" depart="130.50" from="test_63_2i" to="test_88_1o" />
    <trip id="262" depart="131.00" from="test_64_0i" to="test_80_2o" />
    <trip id="263" depart="131.50" from="test_97_1i" to="test_02_3o" />
    <trip id="264" depart="132.00" from="r14-15_test_14_test_15" to="test_00_3o" />
    <trip id="265" depart="132.50" from="r88-98_test_88_test_98" to="test_69_0o" />
    <trip id="266" depart="133.00" from="test_49_0i" to="test_04_1i" />
    <trip id="267" depart="133.50" from="test_70_2i" to="test_83_2o" />
    <trip id="268" depart="134.00" from="test_01_2o" to="test_58_2o" />
    <trip id="269" depart="134.50" from="test_80_2i" to="r80-90_test_80_test_90" />
    <trip id="270" depart="135.00" from="test_90_2i" to="test_98_1o" />
    <trip id="271" depart="135.50" from="r75-85_test_85_test_75" to="r17-27_test_17_test_27" />
    <trip id="272" depart="136.00" from="test_09_0i" to="test_69_0o" />
    <trip id="273" depart="136.50" from="test_98_1i" to="test_20_2o" />
    <trip id="274" depart="137.00" from="test_75_3i" to="r53-54_test_54_test_53" />
    <trip id="275" depart="137.50" from="test_70_2i" to="test_60_2o" />
    <trip id="276" depart="138.00" from="r71-81_test_81_test_71" to="test_85_2i" />
    <trip id="277" depart="138.50" from="test_92_1i" to="test_56_1o" />
    <trip id="278" depart="139.00" from="r85-86_test_85_test_86" to="test_99_1o" />
    <trip id="279" depart="139.50" from="test_88_3o" to="test_10_2o" />
    <trip id="280" depart="140.00" from="test_27_1i" to="test_17_1o" />
    <trip id="281" depart="140.50" from="test_39_0i" to="test_10_2o" />
    <trip id="282" depart="141.00" from="test_92_1i" to="test_90_2o" />
    <trip id="283" depart="141.50" from="r74-75_test_74_test_75" to="test_98_1o" />
    <trip id="284" depart="142.00" from="test_60_2i" to="test_90_2o" />
    <trip id="285" depart="142.50" from="test_73_0o" to="test_29_0o" />
    <trip id="286" depart="143.00" from="test_79_0i" to="test_98_1o" />
    <trip id="287" depart="143.50" from="test_07_1o" to="test_90_1o" />
    <trip id="288" depart="144.00" from="test_45_0i" to="test_36_0o" />
    <trip id="289" depart="144.50" from="test_29_0i" to="test_79_0o" />
    <trip id="290" depart="145.00" from="test_06_3i" to="test_92_1o" />
    <trip id="291" depart="145.50" from="test_90_3i" to="r61-62_test_61_test_62" />
    <trip id="292" depart="146.00" from="test_93_2i" to="test_05_3o" />
    <trip id="293" depart="146.50" from="test_30_2i" to="test_59_0o" />
    <trip id="294" depart="147.00" from="test_19_0i" to="r20-21_test_20_test_21" />
    <trip id="295" depart="147.50" from="test_92_1i" to="test_01_3o" />
    <trip id="296" depart="148.00" from="test_03_3i" to="test_89_1i" />
    <trip id="297" depart="148.50" from="test_10_2i" to="test_93_1o" />
    <trip id="298" depart="149.00" from="test_71_0o" to="test_07_3o" />
    <trip id="299" depart="149.50" from="r06-16_test_16_test_06" to="test_97_1o" />
    <trip id="300" depart="150.00" from="r60-61_test_61_test_60" to="test_77_1o" />
    <trip id="301" depart="150.50" from="test_37_3o" to="test_80_2o" />
    <trip id="302" depart="151.00" from="test_70_2i" to="test_62_0o" />
    <trip id="303" depart="151.50" from="test_38_2o" to="test_89_0o" />
    <trip id="304" depart="152.00" from="r65-66_test_66_test_65" to="test_04_3o" />
    <trip id="305" depart="152.50" from="test_70_2i" to="test_09_0o" />
    <trip id="306" depart="153.00" from="test_50_2i" to="test_32_3i" />
    <trip id="307" depart="153.50" from="test_42_2i" to="test_26_1i" />
    <trip id="308" depart="154.00" from="test_80_2i" to="test_09_3o" />
    <trip id="309" depart="154.50" from="test_71_2o" to="test_07_3o" />
    <trip id="310" depart="155.00" from="test_05_3i" to="r84-94_test_94_test_84" />
    <trip id="311" depart="155.50" from="test_02_3i" to="r84-85_test_84_test_85" />
    <trip id="312" depart="156.00" from="test_44_1i" to="test_82_0i" />
    <trip id="313" depart="156.50" from="test_02_3i" to="test_03_3o" />
    <trip id="314" depart="157.00" from="test_36_1o" to="test_78_3o" />
    <trip id="315" depart="157.50" from="test_99_0i" to="test_40_2o" />
    <trip id="316" depart="158.00" from="test_07_3i" to="r70-80_test_80_test_70" />
    <trip id="317" depart="158.50" from="test_02_3i" to="test_04_3o" />
    <trip id="318" depart="159.00" from="test_01_3i" to="r09-19_test_19_test_09" />
    <trip id="319" depart="159.50" from="test_43_2o" to="test_07_3o" />
    <trip id="320" depart="160.00" from="test_99_0i" to="test_49_0o" />
    <trip id="321" depart="160.50" from="test_70_2i" to="r88-98_test_88_test_98" />
    <trip id="322" depart="161.00" from="test_93_1i" to="test_38_2o" />
    <trip id="323" depart="161.50" from="test_93_1i" to="test_50_2o" />
    <trip id="324" depart="162.00" from="test_31_1o" to="test_29_0o" />
    <trip id="325" depart="162.50" from="test_02_2i" to="r35-45_test_45_test_35" />
    <trip id="326" depart="163.00" from="test_97_1i" to="test_34_1i" />
    <trip id="327" depart="163.50" from="test_90_2i" to="test_20_2o" />
    <trip id="328" depart="164.00" from="r52-53_test_52_test_53" to="test_60_2o" />
    <trip id="329" depart="164.50" from="r37-38_test_38_test_37" to="test_00_2o" />
    <trip id="330" depart="165.00" from="test_49_0i" to="test_09_0o" />
    <trip id="331" depart="165.50" from="test_99_1i" to="r83-84_test_84_test_83" />
    <trip id="332" depart="166.00" from="test_82_3i" to="test_58_1i" />
    <trip id="333" depart="166.50" from="test_89_0i" to="test_04_3o" />
    <trip id="334" depart="167.00" from="test_40_2i" to="test_29_3o" />
    <trip id="335" depart="167.50" from="test_29_0i" to="test_92_1o" />
    <trip id="336" depart="168.00" from="test_99_1i" to="test_09_0o" />
    <trip id="337" depart="168.50" from="test_59_0i" to="test_59_0o" />
    <trip id="338" depart="169.00" from="test_79_1o" to="test_97_1o" />
    <trip id="339" depart="169.50" from="test_03_3i" to="test_03_3o" />
    <trip id="340" depart="170.00" from="test_66_3o" to="test_00_3o" />
    <trip id="341" depart="170.50" from="test_01_3i" to="r52-62_test_62_test_52" />
    <trip id="342" depart="171.00" from="r01-11_test_11_test_01" to="test_29_3o" />
    <trip id="343" depart="171.50" from="test_54_0o" to="test_08_3o" />
    <trip id="344" depart="172.00" from="test_04_3i" to="test_73_0i" />
    <trip id="345" depart="172.50" from="test_71_3i" to="test_30_2o" />
    <trip id="346" depart="173.00" from="test_70_2i" to="test_96_1o" />
    <trip id="347" depart="173.50" from="test_89_0i" to="test_59_3o" />
    <trip id="348" depart="174.00" from="test_67_0o" to="test_96_3i" />
    <trip id="349" depart="174.50" from="test_26_0o" to="test_47_0o" />
    <trip id="350" depart="175.00" from="test_62_2o" to="test_95_1o" />
    <trip id="351" depart="175.50" from="test_90_2i" to="r50-51_test_51_test_50" />
    <trip id="352" depart="176.00" from="test_01_0i" to="test_09_0o" />
    <trip id="353" depart="176.50" from="test_80_2i" to="test_50_2o" />
    <trip id="354" depart="177.00" from="test_08_3i" to="r87-88_test_88_test_87" />
    <trip id="355" depart="177.50" from="test_70_2i" to="test_70_2o" />
    <trip id="356" depart="178.00" from="test_97_1i" to="test_39_0o" />
    <trip id="357" depart="178.50" from="test_39_0i" to="r56-57_test_57_test_56" />
    <trip id="358" depart="179.00" from="r27-37_test_27_test_37" to="test_28_1o" />
    <trip id="359" depart="179.50" from="test_09_3i" to="test_05_3o" />
    <trip id="360" depart="180.00" from="r64-65_test_64_test_65" to="test_98_1o" />
    <trip id="361" depart="180.50" from="test_91_1i" to="test_50_2o" />
    <trip id="362" depart="181.00" from="test_97_3i" to="test_99_3i" />
    <trip id="363" depart="181.50" from="test_69_0i" to="test_07_1i" />
    <trip id="364" depart="182.00" from="r27-37_test_37_test_27" to="test_80_2o" />
    <trip id="365" depart="182.50" from="test_31_3i" to="test_64_0i" />
    <trip id="366" depart="183.00" from="test_95_2o" to="test_01_3o" />
    <trip id="367" depart="183.50" from="test_51_1i" to="test_60_2o" />
    <trip id="368" depart="184.00" from="test_38_3o" to="r64-65_test_64_test_65" />
    <trip id="369" depart="184.50" from="test_10_2i" to="test_09_3o" />
    <trip id="370" depart="185.00" from="test_69_0i" to="test_92_1o" />
    <trip id="371" depart="185.50" from="test_09_3i" to="test_70_2o" />
    <trip id="372" depart="186.00" from="test_08_3i" to="test_97_1o" />
    <trip id="373" depart="186.50" from="test_90_1i" to="test_49_0o" />
    <trip id="374" depart="187.00" from="test_30_2i" to="test_09_0o" />
    <trip id="375" depart="187.50" from="test_09_3i" to="test_99_0o" />
    <trip id="376" depart="188.00" from="test_20_2i" to="test_40_2o" />
    <trip id="377" depart="188.50" from="test_99_1i" to="test_66_0i" />
    <trip id="378" depart="189.00" from="test_46_2i" to="test_22_0o" />
    <trip id="379" depart="189.50" from="test_02_3i" to="test_14_1o" />
    <trip id="380" depart="190.00" from="test_80_2i" to="test_60_0i" />
    <trip id="381" depart="190.50" from="test_81_1i" to="test_03_3o" />
    <trip id="382" depart="191.00" from="test_48_2o" to="test_96_1o" />
    <trip id="383" depart="191.50" from="test_29_0i" to="test_70_2o" />
    <trip id="384" depart="192.00" from="r85-86_test_86_test_85" to="test_99_0o" />
    <trip id="385" depart="192.50" from="test_59_0i" to="test_05_3o" />
    <trip id="386" depart="193.00" from="test_00_3i" to="test_49_0o" />
    <trip id="387" depart="193.50" from="test_49_0i" to="r65-66_test_66_test_65" />
    <trip id="388" depart="194.00" from="test_99_1i" to="test_95_1o" />
    <trip id="389" depart="194.50" from="test_30_2i" to="r82-92_test_82_test_92" />
    <trip id="390" depart="195.00" from="test_91_1i" to="test_39_0o" />
    <trip id="391" depart="195.50" from="test_76_1i" to="test_39_3o" />
    <trip id="392" depart="196.00" from="test_07_3i" to="test_91_1o" />
    <trip id="393" depart="196.50" from="test_99_0i" to="test_05_3o" />
    <trip id="394" depart="197.00" from="test_49_0i" to="test_19_0o" />
    <trip id="395" depart="197.50" from="test_96_1i" to="test_39_3i" />
    <trip id="396" depart="198.00" from="test_93_1i" to="test_92_1o" />
    <trip id="397" depart="198.50" from="test_07_3i" to="test_89_0o" />
    <trip id="398" depart="199.00" from="test_22_3i" to="test_96_3o" />
    <trip id="399" depart="199.50" from="test_39_2i" to="test_90_2o" />
    <trip id="400" depart="200.00" from="test_07_3i" to="test_08_3o" />
    <trip id="401" depart="200.50" from="test_51_3i" to="test_99_2o" />