<nodes>
   <node id="test_00" x="100.000000" y="100.000000" type="traffic_light_right_on_red" tl="test_tll_00"/>
   <node id="test_00_0" x="100.000000" y="125.000000" type="priority"/>
   <node id="test_00_1" x="125.000000" y="100.000000" type="priority"/>
   <node id="test_00_2" x="100.000000" y="75.000000" type="priority"/>
   <node id="test_00_3" x="75.000000" y="100.000000" type="priority"/>

   <node id="test_01" x="100.000000" y="200.000000" type="traffic_light_right_on_red" tl="test_tll_01"/>
   <node id="test_01_0" x="100.000000" y="225.000000" type="priority"/>
   <node id="test_01_1" x="125.000000" y="200.000000" type="priority"/>
   <node id="test_01_2" x="100.000000" y="175.000000" type="priority"/>
   <node id="test_01_3" x="75.000000" y="200.000000" type="priority"/>

   <node id="test_02" x="100.000000" y="300.000000" type="traffic_light_right_on_red" tl="test_tll_02"/>
   <node id="test_02_0" x="100.000000" y="325.000000" type="priority"/>
   <node id="test_02_1" x="125.000000" y="300.000000" type="priority"/>
   <node id="test_02_2" x="100.000000" y="275.000000" type="priority"/>
   <node id="test_02_3" x="75.000000" y="300.000000" type="priority"/>

   <node id="test_03" x="100.000000" y="400.000000" type="traffic_light_right_on_red" tl="test_tll_03"/>
   <node id="test_03_0" x="100.000000" y="425.000000" type="priority"/>
   <node id="test_03_1" x="125.000000" y="400.000000" type="priority"/>
   <node id="test_03_2" x="100.000000" y="375.000000" type="priority"/>
   <node id="test_03_3" x="75.000000" y="400.000000" type="priority"/>

   <node id="test_04" x="100.000000" y="500.000000" type="traffic_light_right_on_red" tl="test_tll_04"/>
   <node id="test_04_0" x="100.000000" y="525.000000" type="priority"/>
   <node id="test_04_1" x="125.000000" y="500.000000" type="priority"/>
   <node id="test_04_2" x="100.000000" y="475.000000" type="priority"/>
   <node id="test_04_3" x="75.000000" y="500.000000" type="priority"/>

   <node id="test_05" x="100.000000" y="600.000000" type="traffic_light_right_on_red" tl="test_tll_05"/>
   <node id="test_05_0" x="100.000000" y="625.000000" type="priority"/>
   <node id="test_05_1" x="125.000000" y="600.000000" type="priority"/>
   <node id="test_05_2" x="100.000000" y="575.000000" type="priority"/>
   <node id="test_05_3" x="75.000000" y="600.000000" type="priority"/>

   <node id="test_06" x="100.000000" y="700.000000" type="traffic_light_right_on_red" tl="test_tll_06"/>
   <node id="test_06_0" x="100.000000" y="725.000000" type="priority"/>
   <node id="test_06_1" x="125.000000" y="700.000000" type="priority"/>
   <node id="test_06_2" x="100.000000" y="675.000000" type="priority"/>
   <node id="test_06_3" x="75.000000" y="700.000000" type="priority"/>

   <node id="test_07" x="100.000000" y="800.000000" type="traffic_light_right_on_red" tl="test_tll_07"/>
   <node id="test_07_0" x="100.000000" y="825.000000" type="priority"/>
   <node id="test_07_1" x="125.000000" y="800.000000" type="priority"/>
   <node id="test_07_2" x="100.000000" y="775.000000" type="priority"/>
   <node id="test_07_3" x="75.000000" y="800.000000" type="priority"/>

   <node id="test_08" x="100.000000" y="900.000000" type="traffic_light_right_on_red" tl="test_tll_08"/>
   <node id="test_08_0" x="100.000000" y="925.000000" type="priority"/>
   <node id="test_08_1" x="125.000000" y="900.000000" type="priority"/>
   <node id="test_08_2" x="100.000000" y="875.000000" type="priority"/>
   <node id="test_08_3" x="75.000000" y="900.000000" type="priority"/>

   <node id="test_09" x="100.000000" y="1000.000000" type="traffic_light_right_on_red" tl="test_tll_09"/>
   <node id="test_09_0" x="100.000000" y="1025.000000" type="priority"/>
   <node id="test_09_1" x="125.000000" y="1000.000000" type="priority"/>
   <node id="test_09_2" x="100.000000" y="975.000000" type="priority"/>
   <node id="test_09_3" x="75.000000" y="1000.000000" type="priority"/>

   <node id="test_10" x="200.000000" y="100.000000" type="traffic_light_right_on_red" tl="test_tll_10"/>
   <node id="test_10_0" x="200.000000" y="125.000000" type="priority"/>
   <node id="test_10_1" x="225.000000" y="100.000000" type="priority"/>
   <node id="test_10_2" x="200.000000" y="75.000000" type="priority"/>
   <node id="test_10_3" x="175.000000" y="100.000000" type="priority"/>

   <node id="test_11" x="200.000000" y="200.000000" type="traffic_light_right_on_red" tl="test_tll_11"/>
   <node id="test_11_0" x="200.000000" y="225.000000" type="priority"/>
   <node id="test_11_1" x="225.000000" y="200.000000" type="priority"/>
   <node id="test_11_2" x="200.000000" y="175.000000" type="priority"/>
   <node id="test_11_3" x="175.000000" y="200.000000" type="priority"/>

   <node id="test_12" x="200.000000" y="300.000000" type="traffic_light_right_on_red" tl="test_tll_12"/>
   <node id="test_12_0" x="200.000000" y="325.000000" type="priority"/>
   <node id="test_12_1" x="225.000000" y="300.000000" type="priority"/>
   <node id="test_12_2" x="200.000000" y="275.000000" type="priority"/>
   <node id="test_12_3" x="175.000000" y="300.000000" type="priority"/>

   <node id="test_13" x="200.000000" y="400.000000" type="traffic_light_right_on_red" tl="test_tll_13"/>
   <node id="test_13_0" x="200.000000" y="425.000000" type="priority"/>
   <node id="test_13_1" x="225.000000" y="400.000000" type="priority"/>
   <node id="test_13_2" x="200.000000" y="375.000000" type="priority"/>
   <node id="test_13_3" x="175.000000" y="400.000000" type="priority"/>

   <node id="test_14" x="200.000000" y="500.000000" type="traffic_light_right_on_red" tl="test_tll_14"/>
   <node id="test_14_0" x="200.000000" y="525.000000" type="priority"/>
   <node id="test_14_1" x="225.000000" y="500.000000" type="priority"/>
   <node id="test_14_2" x="200.000000" y="475.000000" type="priority"/>
   <node id="test_14_3" x="175.000000" y="500.000000" type="priority"/>

   <node id="test_15" x="200.000000" y="600.000000" type="traffic_light_right_on_red" tl="test_tll_15"/>
   <node id="test_15_0" x="200.000000" y="625.000000" type="priority"/>
   <node id="test_15_1" x="225.000000" y="600.000000" type="priority"/>
   <node id="test_15_2" x="200.000000" y="575.000000" type="priority"/>
   <node id="test_15_3" x="175.000000" y="600.000000" type="priority"/>

   <node id="test_16" x="200.000000" y="700.000000" type="traffic_light_right_on_red" tl="test_tll_16"/>
   <node id="test_16_0" x="200.000000" y="725.000000" type="priority"/>
   <node id="test_16_1" x="225.000000" y="700.000000" type="priority"/>
   <node id="test_16_2" x="200.000000" y="675.000000" type="priority"/>
   <node id="test_16_3" x="175.000000" y="700.000000" type="priority"/>

   <node id="test_17" x="200.000000" y="800.000000" type="traffic_light_right_on_red" tl="test_tll_17"/>
   <node id="test_17_0" x="200.000000" y="825.000000" type="priority"/>
   <node id="test_17_1" x="225.000000" y="800.000000" type="priority"/>
   <node id="test_17_2" x="200.000000" y="775.000000" type="priority"/>
   <node id="test_17_3" x="175.000000" y="800.000000" type="priority"/>

   <node id="test_18" x="200.000000" y="900.000000" type="traffic_light_right_on_red" tl="test_tll_18"/>
   <node id="test_18_0" x="200.000000" y="925.000000" type="priority"/>
   <node id="test_18_1" x="225.000000" y="900.000000" type="priority"/>
   <node id="test_18_2" x="200.000000" y="875.000000" type="priority"/>
   <node id="test_18_3" x="175.000000" y="900.000000" type="priority"/>

   <node id="test_19" x="200.000000" y="1000.000000" type="traffic_light_right_on_red" tl="test_tll_19"/>
   <node id="test_19_0" x="200.000000" y="1025.000000" type="priority"/>
   <node id="test_19_1" x="225.000000" y="1000.000000" type="priority"/>
   <node id="test_19_2" x="200.000000" y="975.000000" type="priority"/>
   <node id="test_19_3" x="175.000000" y="1000.000000" type="priority"/>

   <node id="test_20" x="300.000000" y="100.000000" type="traffic_light_right_on_red" tl="test_tll_20"/>
   <node id="test_20_0" x="300.000000" y="125.000000" type="priority"/>
   <node id="test_20_1" x="325.000000" y="100.000000" type="priority"/>
   <node id="test_20_2" x="300.000000" y="75.000000" type="priority"/>
   <node id="test_20_3" x="275.000000" y="100.000000" type="priority"/>

   <node id="test_21" x="300.000000" y="200.000000" type="traffic_light_right_on_red" tl="test_tll_21"/>
   <node id="test_21_0" x="300.000000" y="225.000000" type="priority"/>
   <node id="test_21_1" x="325.000000" y="200.000000" type="priority"/>
   <node id="test_21_2" x="300.000000" y="175.000000" type="priority"/>
   <node id="test_21_3" x="275.000000" y="200.000000" type="priority"/>

   <node id="test_22" x="300.000000" y="300.000000" type="traffic_light_right_on_red" tl="test_tll_22"/>
   <node id="test_22_0" x="300.000000" y="325.000000" type="priority"/>
   <node id="test_22_1" x="325.000000" y="300.000000" type="priority"/>
   <node id="test_22_2" x="300.000000" y="275.000000" type="priority"/>
   <node id="test_22_3" x="275.000000" y="300.000000" type="priority"/>

   <node id="test_23" x="300.000000" y="400.000000" type="traffic_light_right_on_red" tl="test_tll_23"/>
   <node id="test_23_0" x="300.000000" y="425.000000" type="priority"/>
   <node id="test_23_1" x="325.000000" y="400.000000" type="priority"/>
   <node id="test_23_2" x="300.000000" y="375.000000" type="priority"/>
   <node id="test_23_3" x="275.000000" y="400.000000" type="priority"/>

   <node id="test_24" x="300.000000" y="500.000000" type="traffic_light_right_on_red" tl="test_tll_24"/>
   <node id="test_24_0" x="300.000000" y="525.000000" type="priority"/>
   <node id="test_24_1" x="325.000000" y="500.000000" type="priority"/>
   <node id="test_24_2" x="300.000000" y="475.000000" type="priority"/>
   <node id="test_24_3" x="275.000000" y="500.000000" type="priority"/>

   <node id="test_25" x="300.000000" y="600.000000" type="traffic_light_right_on_red" tl="test_tll_25"/>
   <node id="test_25_0" x="300.000000" y="625.000000" type="priority"/>
   <node id="test_25_1" x="325.000000" y="600.000000" type="priority"/>
   <node id="test_25_2" x="300.000000" y="575.000000" type="priority"/>
   <node id="test_25_3" x="275.000000" y="600.000000" type="priority"/>

   <node id="test_26" x="300.000000" y="700.000000" type="traffic_light_right_on_red" tl="test_tll_26"/>
   <node id="test_26_0" x="300.000000" y="725.000000" type="priority"/>
   <node id="test_26_1" x="325.000000" y="700.000000" type="priority"/>
   <node id="test_26_2" x="300.000000" y="675.000000" type="priority"/>
   <node id="test_26_3" x="275.000000" y="700.000000" type="priority"/>

   <node id="test_27" x="300.000000" y="800.000000" type="traffic_light_right_on_red" tl="test_tll_27"/>
   <node id="test_27_0" x="300.000000" y="825.000000" type="priority"/>
   <node id="test_27_1" x="325.000000" y="800.000000" type="priority"/>
   <node id="test_27_2" x="300.000000" y="775.000000" type="priority"/>
   <node id="test_27_3" x="275.000000" y="800.000000" type="priority"/>

   <node id="test_28" x="300.000000" y="900.000000" type="traffic_light_right_on_red" tl="test_tll_28"/>
   <node id="test_28_0" x="300.000000" y="925.000000" type="priority"/>
   <node id="test_28_1" x="325.000000" y="900.000000" type="priority"/>
   <node id="test_28_2" x="300.000000" y="875.000000" type="priority"/>
   <node id="test_28_3" x="275.000000" y="900.000000" type="priority"/>

   <node id="test_29" x="300.000000" y="1000.000000" type="traffic_light_right_on_red" tl="test_tll_29"/>
   <node id="test_29_0" x="300.000000" y="1025.000000" type="priority"/>
   <node id="test_29_1" x="325.000000" y="1000.000000" type="priority"/>
   <node id="test_29_2" x="300.000000" y="975.000000" type="priority"/>
   <node id="test_29_3" x="275.000000" y="1000.000000" type="priority"/>

   <node id="test_30" x="400.000000" y="100.000000" type="traffic_light_right_on_red" tl="test_tll_30"/>
   <node id="test_30_0" x="400.000000" y="125.000000" type="priority"/>
   <node id="test_30_1" x="425.000000" y="100.000000" type="priority"/>
   <node id="test_30_2" x="400.000000" y="75.000000" type="priority"/>
   <node id="test_30_3" x="375.000000" y="100.000000" type="priority"/>

   <node id="test_31" x="400.000000" y="200.000000" type="traffic_light_right_on_red" tl="test_tll_31"/>
   <node id="test_31_0" x="400.000000" y="225.000000" type="priority"/>
   <node id="test_31_1" x="425.000000" y="200.000000" type="priority"/>
   <node id="test_31_2" x="400.000000" y="175.000000" type="priority"/>
   <node id="test_31_3" x="375.000000" y="200.000000" type="priority"/>

   <node id="test_32" x="400.000000" y="300.000000" type="traffic_light_right_on_red" tl="test_tll_32"/>
   <node id="test_32_0" x="400.000000" y="325.000000" type="priority"/>
   <node id="test_32_1" x="425.000000" y="300.000000" type="priority"/>
   <node id="test_32_2" x="400.000000" y="275.000000" type="priority"/>
   <node id="test_32_3" x="375.000000" y="300.000000" type="priority"/>

   <node id="test_33" x="400.000000" y="400.000000" type="traffic_light_right_on_red" tl="test_tll_33"/>
   <node id="test_33_0" x="400.000000" y="425.000000" type="priority"/>
   <node id="test_33_1" x="425.000000" y="400.000000" type="priority"/>
   <node id="test_33_2" x="400.000000" y="375.000000" type="priority"/>
   <node id="test_33_3" x="375.000000" y="400.000000" type="priority"/>

   <node id="test_34" x="400.000000" y="500.000000" type="traffic_light_right_on_red" tl="test_tll_34"/>
   <node id="test_34_0" x="400.000000" y="525.000000" type="priority"/>
   <node id="test_34_1" x="425.000000" y="500.000000" type="priority"/>
   <node id="test_34_2" x="400.000000" y="475.000000" type="priority"/>
   <node id="test_34_3" x="375.000000" y="500.000000" type="priority"/>

   <node id="test_35" x="400.000000" y="600.000000" type="traffic_light_right_on_red" tl="test_tll_35"/>
   <node id="test_35_0" x="400.000000" y="625.000000" type="priority"/>
   <node id="test_35_1" x="425.000000" y="600.000000" type="priority"/>
   <node id="test_35_2" x="400.000000" y="575.000000" type="priority"/>
   <node id="test_35_3" x="375.000000" y="600.000000" type="priority"/>

   <node id="test_36" x="400.000000" y="700.000000" type="traffic_light_right_on_red" tl="test_tll_36"/>
   <node id="test_36_0" x="400.000000" y="725.000000" type="priority"/>
   <node id="test_36_1" x="425.000000" y="700.000000" type="priority"/>
   <node id="test_36_2" x="400.000000" y="675.000000" type="priority"/>
   <node id="test_36_3" x="375.000000" y="700.000000" type="priority"/>

   <node id="test_37" x="400.000000" y="800.000000" type="traffic_light_right_on_red" tl="test_tll_37"/>
   <node id="test_37_0" x="400.000000" y="825.000000" type="priority"/>
   <node id="test_37_1" x="425.000000" y="800.000000" type="priority"/>
   <node id="test_37_2" x="400.000000" y="775.000000" type="priority"/>
   <node id="test_37_3" x="375.000000" y="800.000000" type="priority"/>

   <node id="test_38" x="400.000000" y="900.000000" type="traffic_light_right_on_red" tl="test_tll_38"/>
   <node id="test_38_0" x="400.000000" y="925.000000" type="priority"/>
   <node id="test_38_1" x="425.000000" y="900.000000" type="priority"/>
   <node id="test_38_2" x="400.000000" y="875.000000" type="priority"/>
   <node id="test_38_3" x="375.000000" y="900.000000" type="priority"/>

   <node id="test_39" x="400.000000" y="1000.000000" type="traffic_light_right_on_red" tl="test_tll_39"/>
   <node id="test_39_0" x="400.000000" y="1025.000000" type="priority"/>
   <node id="test_39_1" x="425.000000" y="1000.000000" type="priority"/>
   <node id="test_39_2" x="400.000000" y="975.000000" type="priority"/>
   <node id="test_39_3" x="375.000000" y="1000.000000" type="priority"/>

   <node id="test_40" x="500.000000" y="100.000000" type="traffic_light_right_on_red" tl="test_tll_40"/>
   <node id="test_40_0" x="500.000000" y="125.000000" type="priority"/>
   <node id="test_40_1" x="525.000000" y="100.000000" type="priority"/>
   <node id="test_40_2" x="500.000000" y="75.000000" type="priority"/>
   <node id="test_40_3" x="475.000000" y="100.000000" type="priority"/>

   <node id="test_41" x="500.000000" y="200.000000" type="traffic_light_right_on_red" tl="test_tll_41"/>
   <node id="test_41_0" x="500.000000" y="225.000000" type="priority"/>
   <node id="test_41_1" x="525.000000" y="200.000000" type="priority"/>
   <node id="test_41_2" x="500.000000" y="175.000000" type="priority"/>
   <node id="test_41_3" x="475.000000" y="200.000000" type="priority"/>

   <node id="test_42" x="500.000000" y="300.000000" type="traffic_light_right_on_red" tl="test_tll_42"/>
   <node id="test_42_0" x="500.000000" y="325.000000" type="priority"/>
   <node id="test_42_1" x="525.000000" y="300.000000" type="priority"/>
   <node id="test_42_2" x="500.000000" y="275.000000" type="priority"/>
   <node id="test_42_3" x="475.000000" y="300.000000" type="priority"/>

   <node id="test_43" x="500.000000" y="400.000000" type="traffic_light_right_on_red" tl="test_tll_43"/>
   <node id="test_43_0" x="500.000000" y="425.000000" type="priority"/>
   <node id="test_43_1" x="525.000000" y="400.000000" type="priority"/>
   <node id="test_43_2" x="500.000000" y="375.000000" type="priority"/>
   <node id="test_43_3" x="475.000000" y="400.000000" type="priority"/>

   <node id="test_44" x="500.000000" y="500.000000" type="traffic_light_right_on_red" tl="test_tll_44"/>
   <node id="test_44_0" x="500.000000" y="525.000000" type="priority"/>
   <node id="test_44_1" x="525.000000" y="500.000000" type="priority"/>
   <node id="test_44_2" x="500.000000" y="475.000000" type="priority"/>
   <node id="test_44_3" x="475.000000" y="500.000000" type="priority"/>

   <node id="test_45" x="500.000000" y="600.000000" type="traffic_light_right_on_red" tl="test_tll_45"/>
   <node id="test_45_0" x="500.000000" y="625.000000" type="priority"/>
   <node id="test_45_1" x="525.000000" y="600.000000" type="priority"/>
   <node id="test_45_2" x="500.000000" y="575.000000" type="priority"/>
   <node id="test_45_3" x="475.000000" y="600.000000" type="priority"/>

   <node id="test_46" x="500.000000" y="700.000000" type="traffic_light_right_on_red" tl="test_tll_46"/>
   <node id="test_46_0" x="500.000000" y="725.000000" type="priority"/>
   <node id="test_46_1" x="525.000000" y="700.000000" type="priority"/>
   <node id="test_46_2" x="500.000000" y="675.000000" type="priority"/>
   <node id="test_46_3" x="475.000000" y="700.000000" type="priority"/>

   <node id="test_47" x="500.000000" y="800.000000" type="traffic_light_right_on_red" tl="test_tll_47"/>
   <node id="test_47_0" x="500.000000" y="825.000000" type="priority"/>
   <node id="test_47_1" x="525.000000" y="800.000000" type="priority"/>
   <node id="test_47_2" x="500.000000" y="775.000000" type="priority"/>
   <node id="test_47_3" x="475.000000" y="800.000000" type="priority"/>

   <node id="test_48" x="500.000000" y="900.000000" type="traffic_light_right_on_red" tl="test_tll_48"/>
   <node id="test_48_0" x="500.000000" y="925.000000" type="priority"/>
   <node id="test_48_1" x="525.000000" y="900.000000" type="priority"/>
   <node id="test_48_2" x="500.000000" y="875.000000" type="priority"/>
   <node id="test_48_3" x="475.000000" y="900.000000" type="priority"/>

   <node id="test_49" x="500.000000" y="1000.000000" type="traffic_light_right_on_red" tl="test_tll_49"/>
   <node id="test_49_0" x="500.000000" y="1025.000000" type="priority"/>
   <node id="test_49_1" x="525.000000" y="1000.000000" type="priority"/>
   <node id="test_49_2" x="500.000000" y="975.000000" type="priority"/>
   <node id="test_49_3" x="475.000000" y="1000.000000" type="priority"/>

   <node id="test_50" x="600.000000" y="100.000000" type="traffic_light_right_on_red" tl="test_tll_50"/>
   <node id="test_50_0" x="600.000000" y="125.000000" type="priority"/>
   <node id="test_50_1" x="625.000000" y="100.000000" type="priority"/>
   <node id="test_50_2" x="600.000000" y="75.000000" type="priority"/>
   <node id="test_50_3" x="575.000000" y="100.000000" type="priority"/>

   <node id="test_51" x="600.000000" y="200.000000" type="traffic_light_right_on_red" tl="test_tll_51"/>
   <node id="test_51_0" x="600.000000" y="225.000000" type="priority"/>
   <node id="test_51_1" x="625.000000" y="200.000000" type="priority"/>
   <node id="test_51_2" x="600.000000" y="175.000000" type="priority"/>
   <node id="test_51_3" x="575.000000" y="200.000000" type="priority"/>

   <node id="test_52" x="600.000000" y="300.000000" type="traffic_light_right_on_red" tl="test_tll_52"/>
   <node id="test_52_0" x="600.000000" y="325.000000" type="priority"/>
   <node id="test_52_1" x="625.000000" y="300.000000" type="priority"/>
   <node id="test_52_2" x="600.000000" y="275.000000" type="priority"/>
   <node id="test_52_3" x="575.000000" y="300.000000" type="priority"/>

   <node id="test_53" x="600.000000" y="400.000000" type="traffic_light_right_on_red" tl="test_tll_53"/>
   <node id="test_53_0" x="600.000000" y="425.000000" type="priority"/>
   <node id="test_53_1" x="625.000000" y="400.000000" type="priority"/>
   <node id="test_53_2" x="600.000000" y="375.000000" type="priority"/>
   <node id="test_53_3" x="575.000000" y="400.000000" type="priority"/>

   <node id="test_54" x="600.000000" y="500.000000" type="traffic_light_right_on_red" tl="test_tll_54"/>
   <node id="test_54_0" x="600.000000" y="525.000000" type="priority"/>
   <node id="test_54_1" x="625.000000" y="500.000000" type="priority"/>
   <node id="test_54_2" x="600.000000" y="475.000000" type="priority"/>
   <node id="test_54_3" x="575.000000" y="500.000000" type="priority"/>

   <node id="test_55" x="600.000000" y="600.000000" type="traffic_light_right_on_red" tl="test_tll_55"/>
   <node id="test_55_0" x="600.000000" y="625.000000" type="priority"/>
   <node id="test_55_1" x="625.000000" y="600.000000" type="priority"/>
   <node id="test_55_2" x="600.000000" y="575.000000" type="priority"/>
   <node id="test_55_3" x="575.000000" y="600.000000" type="priority"/>

   <node id="test_56" x="600.000000" y="700.000000" type="traffic_light_right_on_red" tl="test_tll_56"/>
   <node id="test_56_0" x="600.000000" y="725.000000" type="priority"/>
   <node id="test_56_1" x="625.000000" y="700.000000" type="priority"/>
   <node id="test_56_2" x="600.000000" y="675.000000" type="priority"/>
   <node id="test_56_3" x="575.000000" y="700.000000" type="priority"/>

   <node id="test_57" x="600.000000" y="800.000000" type="traffic_light_right_on_red" tl="test_tll_57"/>
   <node id="test_57_0" x="600.000000" y="825.000000" type="priority"/>
   <node id="test_57_1" x="625.000000" y="800.000000" type="priority"/>
   <node id="test_57_2" x="600.000000" y="775.000000" type="priority"/>
   <node id="test_57_3" x="575.000000" y="800.000000" type="priority"/>

   <node id="test_58" x="600.000000" y="900.000000" type="traffic_light_right_on_red" tl="test_tll_58"/>
   <node id="test_58_0" x="600.000000" y="925.000000" type="priority"/>
   <node id="test_58_1" x="625.000000" y="900.000000" type="priority"/>
   <node id="test_58_2" x="600.000000" y="875.000000" type="priority"/>
   <node id="test_58_3" x="575.000000" y="900.000000" type="priority"/>

   <node id="test_59" x="600.000000" y="1000.000000" type="traffic_light_right_on_red" tl="test_tll_59"/>
   <node id="test_59_0" x="600.000000" y="1025.000000" type="priority"/>
   <node id="test_59_1" x="625.000000" y="1000.000000" type="priority"/>
   <node id="test_59_2" x="600.000000" y="975.000000" type="priority"/>
   <node id="test_59_3" x="575.000000" y="1000.000000" type="priority"/>

   <node id="test_60" x="700.000000" y="100.000000" type="traffic_light_right_on_red" tl="test_tll_60"/>
   <node id="test_60_0" x="700.000000" y="125.000000" type="priority"/>
   <node id="test_60_1" x="725.000000" y="100.000000" type="priority"/>
   <node id="test_60_2" x="700.000000" y="75.000000" type="priority"/>
   <node id="test_60_3" x="675.000000" y="100.000000" type="priority"/>

   <node id="test_61" x="700.000000" y="200.000000" type="traffic_light_right_on_red" tl="test_tll_61"/>
   <node id="test_61_0" x="700.000000" y="225.000000" type="priority"/>
   <node id="test_61_1" x="725.000000" y="200.000000" type="priority"/>
   <node id="test_61_2" x="700.000000" y="175.000000" type="priority"/>
   <node id="test_61_3" x="675.000000" y="200.000000" type="priority"/>

   <node id="test_62" x="700.000000" y="300.000000" type="traffic_light_right_on_red" tl="test_tll_62"/>
   <node id="test_62_0" x="700.000000" y="325.000000" type="priority"/>
   <node id="test_62_1" x="725.000000" y="300.000000" type="priority"/>
   <node id="test_62_2" x="700.000000" y="275.000000" type="priority"/>
   <node id="test_62_3" x="675.000000" y="300.000000" type="priority"/>

   <node id="test_63" x="700.000000" y="400.000000" type="traffic_light_right_on_red" tl="test_tll_63"/>
   <node id="test_63_0" x="700.000000" y="425.000000" type="priority"/>
   <node id="test_63_1" x="725.000000" y="400.000000" type="priority"/>
   <node id="test_63_2" x="700.000000" y="375.000000" type="priority"/>
   <node id="test_63_3" x="675.000000" y="400.000000" type="priority"/>

   <node id="test_64" x="700.000000" y="500.000000" type="traffic_light_right_on_red" tl="test_tll_64"/>
   <node id="test_64_0" x="700.000000" y="525.000000" type="priority"/>
   <node id="test_64_1" x="725.000000" y="500.000000" type="priority"/>
   <node id="test_64_2" x="700.000000" y="475.000000" type="priority"/>
   <node id="test_64_3" x="675.000000" y="500.000000" type="priority"/>

   <node id="test_65" x="700.000000" y="600.000000" type="traffic_light_right_on_red" tl="test_tll_65"/>
   <node id="test_65_0" x="700.000000" y="625.000000" type="priority"/>
   <node id="test_65_1" x="725.000000" y="600.000000" type="priority"/>
   <node id="test_65_2" x="700.000000" y="575.000000" type="priority"/>
   <node id="test_65_3" x="675.000000" y="600.000000" type="priority"/>

   <node id="test_66" x="700.000000" y="700.000000" type="traffic_light_right_on_red" tl="test_tll_66"/>
   <node id="test_66_0" x="700.000000" y="725.000000" type="priority"/>
   <node id="test_66_1" x="725.000000" y="700.000000" type="priority"/>
   <node id="test_66_2" x="700.000000" y="675.000000" type="priority"/>
   <node id="test_66_3" x="675.000000" y="700.000000" type="priority"/>

   <node id="test_67" x="700.000000" y="800.000000" type="traffic_light_right_on_red" tl="test_tll_67"/>
   <node id="test_67_0" x="700.000000" y="825.000000" type="priority"/>
   <node id="test_67_1" x="725.000000" y="800.000000" type="priority"/>
   <node id="test_67_2" x="700.000000" y="775.000000" type="priority"/>
   <node id="test_67_3" x="675.000000" y="800.000000" type="priority"/>

   <node id="test_68" x="700.000000" y="900.000000" type="traffic_light_right_on_red" tl="test_tll_68"/>
   <node id="test_68_0" x="700.000000" y="925.000000" type="priority"/>
   <node id="test_68_1" x="725.000000" y="900.000000" type="priority"/>
   <node id="test_68_2" x="700.000000" y="875.000000" type="priority"/>
   <node id="test_68_3" x="675.000000" y="900.000000" type="priority"/>

   <node id="test_69" x="700.000000" y="1000.000000" type="traffic_light_right_on_red" tl="test_tll_69"/>
   <node id="test_69_0" x="700.000000" y="1025.000000" type="priority"/>
   <node id="test_69_1" x="725.000000" y="1000.000000" type="priority"/>
   <node id="test_69_2" x="700.000000" y="975.000000" type="priority"/>
   <node id="test_69_3" x="675.000000" y="1000.000000" type="priority"/>

   <node id="test_70" x="800.000000" y="100.000000" type="traffic_light_right_on_red" tl="test_tll_70"/>
   <node id="test_70_0" x="800.000000" y="125.000000" type="priority"/>
   <node id="test_70_1" x="825.000000" y="100.000000" type="priority"/>
   <node id="test_70_2" x="800.000000" y="75.000000" type="priority"/>
   <node id="test_70_3" x="775.000000" y="100.000000" type="priority"/>

   <node id="test_71" x="800.000000" y="200.000000" type="traffic_light_right_on_red" tl="test_tll_71"/>
   <node id="test_71_0" x="800.000000" y="225.000000" type="priority"/>
   <node id="test_71_1" x="825.000000" y="200.000000" type="priority"/>
   <node id="test_71_2" x="800.000000" y="175.000000" type="priority"/>
   <node id="test_71_3" x="775.000000" y="200.000000" type="priority"/>

   <node id="test_72" x="800.000000" y="300.000000" type="traffic_light_right_on_red" tl="test_tll_72"/>
   <node id="test_72_0" x="800.000000" y="325.000000" type="priority"/>
   <node id="test_72_1" x="825.000000" y="300.000000" type="priority"/>
   <node id="test_72_2" x="800.000000" y="275.000000" type="priority"/>
   <node id="test_72_3" x="775.000000" y="300.000000" type="priority"/>

   <node id="test_73" x="800.000000" y="400.000000" type="traffic_light_right_on_red" tl="test_tll_73"/>
   <node id="test_73_0" x="800.000000" y="425.000000" type="priority"/>
   <node id="test_73_1" x="825.000000" y="400.000000" type="priority"/>
   <node id="test_73_2" x="800.000000" y="375.000000" type="priority"/>
   <node id="test_73_3" x="775.000000" y="400.000000" type="priority"/>

   <node id="test_74" x="800.000000" y="500.000000" type="traffic_light_right_on_red" tl="test_tll_74"/>
   <node id="test_74_0" x="800.000000" y="525.000000" type="priority"/>
   <node id="test_74_1" x="825.000000" y="500.000000" type="priority"/>
   <node id="test_74_2" x="800.000000" y="475.000000" type="priority"/>
   <node id="test_74_3" x="775.000000" y="500.000000" type="priority"/>

   <node id="test_75" x="800.000000" y="600.000000" type="traffic_light_right_on_red" tl="test_tll_75"/>
   <node id="test_75_0" x="800.000000" y="625.000000" type="priority"/>
   <node id="test_75_1" x="825.000000" y="600.000000" type="priority"/>
   <node id="test_75_2" x="800.000000" y="575.000000" type="priority"/>
   <node id="test_75_3" x="775.000000" y="600.000000" type="priority"/>
