<configuration>
   <input>
      <net-file value="C:/Users/FILAB/Desktop/arrange/5_code/SUMO/sumo_DT/test_folder/test25.net.xml"/>
      <route-files value="C:/Users/FILAB/Desktop/arrange/5_code/SUMO/sumo_DT/test_folder/test25.rou.xml"/>
      <additional-files value="C:/Users/FILAB/Desktop/arrange/5_code/SUMO/sumo_DT/test_folder/test25.add.xml"/>
   </input>
   <output>
      <summary-output value="C:/Users/FILAB/Desktop/arrange/5_code/SUMO/sumo_DT/test_folder/test25_summary.xml"/>
      <summary-output.period value="100"/>
      <queue-output value="C:/Users/FILAB/Desktop/arrange/5_code/SUMO/sumo_DT/test_folder/test25_queue.xml"/>
      <queue-output.period value="100"/>
   </output>
   <time>
      <begin value="0"/>
      <end value="3600"/>
   </time>
</configuration>