<?xml version='1.0' encoding='utf-8'?>
<routes>
  <vType accel="1.0" decel="5.0" id="Car" length="2.0" maxSpeed="70.0" sigma="0.0" />
  <route id="route0" edges="0_0i 0_1o r1_0_1 1_0i 1_3o" />
  <route id="route1" edges="0_0i 0_1o r1_0_1 1_0i 1_2o r2_1_2 2_0i 2_2o" />
  <route id="route2" edges="0_0i 0_1o r1_0_1 1_0i 1_1o r5_1_4 4_3i 4_0o" />
  <route id="route3" edges="0_0i 0_1o r1_0_1 1_0i 1_1o r5_1_4 4_3i 4_1o" />
  <route id="route4" edges="0_0i 0_1o r1_0_1 1_0i 1_1o r5_1_4 4_3i 4_2o r4_4_3 3_0i 3_1o" />
  <route id="route5" edges="0_0i 0_1o r1_0_1 1_0i 1_2o r2_1_2 2_0i 2_1o r3_2_3 3_3i 3_1o" />
  <route id="route6" edges="0_0i 0_1o r1_0_1 1_0i 1_1o r5_1_4 4_3i 4_2o r4_4_3 3_0i 3_2o" />
  <route id="route7" edges="0_0i 0_1o r1_0_1 1_0i 1_2o r2_1_2 2_0i 2_1o r3_2_3 3_3i 3_2o" />
  <route id="route8" edges="0_2i 0_1o r1_0_1 1_0i 1_3o" />
  <route id="route9" edges="0_2i 0_1o r1_0_1 1_0i 1_2o r2_1_2 2_0i 2_2o" />
  <route id="route10" edges="0_2i 0_1o r1_0_1 1_0i 1_1o r5_1_4 4_3i 4_0o" />
  <route id="route11" edges="0_2i 0_1o r1_0_1 1_0i 1_1o r5_1_4 4_3i 4_1o" />
  <route id="route12" edges="0_2i 0_1o r1_0_1 1_0i 1_1o r5_1_4 4_3i 4_2o r4_4_3 3_0i 3_1o" />
  <route id="route13" edges="0_2i 0_1o r1_0_1 1_0i 1_2o r2_1_2 2_0i 2_1o r3_2_3 3_3i 3_1o" />
  <route id="route14" edges="0_2i 0_1o r1_0_1 1_0i 1_1o r5_1_4 4_3i 4_2o r4_4_3 3_0i 3_2o" />
  <route id="route15" edges="0_2i 0_1o r1_0_1 1_0i 1_2o r2_1_2 2_0i 2_1o r3_2_3 3_3i 3_2o" />
  <route id="route16" edges="1_3i 1_0o r1_1_0 0_1i 0_0o" />
  <route id="route17" edges="1_3i 1_0o r1_1_0 0_1i 0_2o" />
  <route id="route18" edges="2_2i 2_0o r2_2_1 1_2i 1_0o r1_1_0 0_1i 0_0o" />
  <route id="route19" edges="2_2i 2_0o r2_2_1 1_2i 1_0o r1_1_0 0_1i 0_2o" />
  <route id="route20" edges="4_0i 4_3o r5_4_1 1_1i 1_0o r1_1_0 0_1i 0_0o" />
  <route id="route21" edges="4_0i 4_3o r5_4_1 1_1i 1_0o r1_1_0 0_1i 0_2o" />
  <route id="route22" edges="4_1i 4_3o r5_4_1 1_1i 1_0o r1_1_0 0_1i 0_0o" />
  <route id="route23" edges="4_1i 4_3o r5_4_1 1_1i 1_0o r1_1_0 0_1i 0_2o" />
  <route id="route24" edges="3_1i 3_0o r4_3_4 4_2i 4_3o r5_4_1 1_1i 1_0o r1_1_0 0_1i 0_0o" />
  <route id="route25" edges="3_1i 3_3o r3_3_2 2_1i 2_0o r2_2_1 1_2i 1_0o r1_1_0 0_1i 0_0o" />
  <route id="route26" edges="3_1i 3_0o r4_3_4 4_2i 4_3o r5_4_1 1_1i 1_0o r1_1_0 0_1i 0_2o" />
  <route id="route27" edges="3_1i 3_3o r3_3_2 2_1i 2_0o r2_2_1 1_2i 1_0o r1_1_0 0_1i 0_2o" />
  <route id="route28" edges="3_2i 3_0o r4_3_4 4_2i 4_3o r5_4_1 1_1i 1_0o r1_1_0 0_1i 0_0o" />
  <route id="route29" edges="3_2i 3_3o r3_3_2 2_1i 2_0o r2_2_1 1_2i 1_0o r1_1_0 0_1i 0_0o" />
  <route id="route30" edges="3_2i 3_0o r4_3_4 4_2i 4_3o r5_4_1 1_1i 1_0o r1_1_0 0_1i 0_2o" />
  <route id="route31" edges="3_2i 3_3o r3_3_2 2_1i 2_0o r2_2_1 1_2i 1_0o r1_1_0 0_1i 0_2o" />
  <route id="route32" edges="1_3i 1_2o r2_1_2 2_0i 2_2o" />
  <route id="route33" edges="1_3i 1_2o r2_1_2 2_0i 2_1o r3_2_3 3_3i 3_1o" />
  <route id="route34" edges="1_3i 1_2o r2_1_2 2_0i 2_1o r3_2_3 3_3i 3_2o" />
  <route id="route35" edges="4_0i 4_3o r5_4_1 1_1i 1_2o r2_1_2 2_0i 2_2o" />
  <route id="route36" edges="4_1i 4_3o r5_4_1 1_1i 1_2o r2_1_2 2_0i 2_2o" />
  <route id="route37" edges="2_2i 2_0o r2_2_1 1_2i 1_3o" />
  <route id="route38" edges="2_2i 2_0o r2_2_1 1_2i 1_1o r5_1_4 4_3i 4_0o" />
  <route id="route39" edges="2_2i 2_0o r2_2_1 1_2i 1_1o r5_1_4 4_3i 4_1o" />
  <route id="route40" edges="3_1i 3_3o r3_3_2 2_1i 2_0o r2_2_1 1_2i 1_3o" />
  <route id="route41" edges="3_2i 3_3o r3_3_2 2_1i 2_0o r2_2_1 1_2i 1_3o" />
  <route id="route42" edges="2_2i 2_1o r3_2_3 3_3i 3_0o r4_3_4 4_2i 4_0o" />
  <route id="route43" edges="2_2i 2_1o r3_2_3 3_3i 3_0o r4_3_4 4_2i 4_1o" />
  <route id="route44" edges="2_2i 2_1o r3_2_3 3_3i 3_1o" />
  <route id="route45" edges="2_2i 2_1o r3_2_3 3_3i 3_2o" />
  <route id="route46" edges="4_0i 4_2o r4_4_3 3_0i 3_3o r3_3_2 2_1i 2_2o" />
  <route id="route47" edges="4_1i 4_2o r4_4_3 3_0i 3_3o r3_3_2 2_1i 2_2o" />
  <route id="route48" edges="3_1i 3_3o r3_3_2 2_1i 2_2o" />
  <route id="route49" edges="3_2i 3_3o r3_3_2 2_1i 2_2o" />
  <route id="route50" edges="3_1i 3_0o r4_3_4 4_2i 4_3o r5_4_1 1_1i 1_3o" />
  <route id="route51" edges="3_1i 3_0o r4_3_4 4_2i 4_0o" />
  <route id="route52" edges="3_1i 3_0o r4_3_4 4_2i 4_1o" />
  <route id="route53" edges="3_2i 3_0o r4_3_4 4_2i 4_3o r5_4_1 1_1i 1_3o" />
  <route id="route54" edges="3_2i 3_0o r4_3_4 4_2i 4_0o" />
  <route id="route55" edges="3_2i 3_0o r4_3_4 4_2i 4_1o" />
  <route id="route56" edges="1_3i 1_1o r5_1_4 4_3i 4_2o r4_4_3 3_0i 3_1o" />
  <route id="route57" edges="1_3i 1_1o r5_1_4 4_3i 4_2o r4_4_3 3_0i 3_2o" />
  <route id="route58" edges="4_0i 4_2o r4_4_3 3_0i 3_1o" />
  <route id="route59" edges="4_0i 4_2o r4_4_3 3_0i 3_2o" />
  <route id="route60" edges="4_1i 4_2o r4_4_3 3_0i 3_1o" />
  <route id="route61" edges="4_1i 4_2o r4_4_3 3_0i 3_2o" />
  <route id="route62" edges="4_0i 4_3o r5_4_1 1_1i 1_3o" />
  <route id="route63" edges="4_1i 4_3o r5_4_1 1_1i 1_3o" />
  <route id="route64" edges="1_3i 1_1o r5_1_4 4_3i 4_0o" />
  <route id="route65" edges="1_3i 1_1o r5_1_4 4_3i 4_1o" />
  <vehicle depart="1" id="veh2452" route="route24" type="Car" />
  <vehicle depart="2" id="veh4353" route="route42" type="Car" />
  <vehicle depart="3" id="veh1910" route="route15" type="Car" />
  <vehicle depart="4" id="veh640" route="route6" type="Car" />
  <vehicle depart="5" id="veh924" route="route7" type="Car" />
  <vehicle depart="5" id="veh4324" route="route38" type="Car" />
  <vehicle depart="6" id="veh3" route="route0" type="Car" />
  <vehicle depart="6" id="veh4351" route="route42" type="Car" />
  <vehicle depart="7" id="veh2416" route="route24" type="Car" />
  <vehicle depart="7" id="veh4006" route="route30" type="Car" />
  <vehicle depart="8" id="veh1197" route="route12" type="Car" />
  <vehicle depart="8" id="veh4036" route="route31" type="Car" />
  <vehicle depart="10" id="veh2940" route="route26" type="Car" />
  <vehicle depart="10" id="veh4224" route="route31" type="Car" />
  <vehicle depart="10" id="veh4412" route="route52" type="Car" />
  <vehicle depart="11" id="veh1950" route="route15" type="Car" />
  <vehicle depart="12" id="veh2947" route="route26" type="Car" />
  <vehicle depart="14" id="veh2308" route="route24" type="Car" />
  <vehicle depart="16" id="veh375" route="route5" type="Car" />
  <vehicle depart="16" id="veh2638" route="route25" type="Car" />
  <vehicle depart="16" id="veh4364" route="route44" type="Car" />
  <vehicle depart="20" id="veh2196" route="route24" type="Car" />
  <vehicle depart="20" id="veh3103" route="route27" type="Car" />
  <vehicle depart="20" id="veh4067" route="route31" type="Car" />
  <vehicle depart="21" id="veh3558" route="route29" type="Car" />
  <vehicle depart="22" id="veh1248" route="route12" type="Car" />
  <vehicle depart="22" id="veh1776" route="route14" type="Car" />
  <vehicle depart="23" id="veh2208" route="route24" type="Car" />
  <vehicle depart="25" id="veh482" route="route5" type="Car" />
  <vehicle depart="25" id="veh529" route="route5" type="Car" />
  <vehicle depart="26" id="veh1768" route="route14" type="Car" />
  <vehicle depart="28" id="veh1246" route="route12" type="Car" />
  <vehicle depart="29" id="veh1892" route="route15" type="Car" />
  <vehicle depart="30" id="veh1156" route="route12" type="Car" />
  <vehicle depart="32" id="veh774" route="route6" type="Car" />
  <vehicle depart="32" id="veh2225" route="route24" type="Car" />
  <vehicle depart="33" id="veh694" route="route6" type="Car" />
  <vehicle depart="33" id="veh1368" route="route13" type="Car" />
  <vehicle depart="33" id="veh2337" route="route24" type="Car" />
  <vehicle depart="33" id="veh3619" route="route29" type="Car" />
  <vehicle depart="34" id="veh3890" route="route30" type="Car" />
  <vehicle depart="36" id="veh2479" route="route25" type="Car" />
  <vehicle depart="36" id="veh3396" route="route28" type="Car" />
  <vehicle depart="37" id="veh151" route="route4" type="Car" />
  <vehicle depart="37" id="veh1108" route="route12" type="Car" />
  <vehicle depart="37" id="veh1378" route="route13" type="Car" />
  <vehicle depart="37" id="veh2966" route="route26" type="Car" />
  <vehicle depart="37" id="veh3171" route="route27" type="Car" />
  <vehicle depart="42" id="veh1818" route="route14" type="Car" />
  <vehicle depart="44" id="veh799" route="route6" type="Car" />
  <vehicle depart="44" id="veh2554" route="route25" type="Car" />
  <vehicle depart="45" id="veh1469" route="route13" type="Car" />
  <vehicle depart="45" id="veh1510" route="route13" type="Car" />
  <vehicle depart="45" id="veh2218" route="route24" type="Car" />
  <vehicle depart="46" id="veh279" route="route4" type="Car" />
  <vehicle depart="46" id="veh1299" route="route12" type="Car" />
  <vehicle depart="46" id="veh2346" route="route24" type="Car" />
  <vehicle depart="48" id="veh31" route="route4" type="Car" />
  <vehicle depart="48" id="veh1597" route="route13" type="Car" />
  <vehicle depart="49" id="veh1868" route="route14" type="Car" />
  <vehicle depart="52" id="veh1708" route="route14" type="Car" />
  <vehicle depart="52" id="veh1978" route="route15" type="Car" />
  <vehicle depart="53" id="veh3978" route="route30" type="Car" />
  <vehicle depart="54" id="veh1717" route="route14" type="Car" />
  <vehicle depart="55" id="veh119" route="route4" type="Car" />
  <vehicle depart="60" id="veh724" route="route6" type="Car" />
  <vehicle depart="60" id="veh1418" route="route13" type="Car" />
  <vehicle depart="61" id="veh878" route="route7" type="Car" />
  <vehicle depart="61" id="veh1554" route="route13" type="Car" />
  <vehicle depart="61" id="veh2707" route="route25" type="Car" />
  <vehicle depart="61" id="veh2939" route="route26" type="Car" />
  <vehicle depart="62" id="veh811" route="route7" type="Car" />
  <vehicle depart="62" id="veh2802" route="route26" type="Car" />
  <vehicle depart="63" id="veh338" route="route5" type="Car" />
  <vehicle depart="63" id="veh635" route="route6" type="Car" />
  <vehicle depart="63" id="veh807" route="route6" type="Car" />
  <vehicle depart="63" id="veh1867" route="route14" type="Car" />
  <vehicle depart="63" id="veh4215" route="route31" type="Car" />
  <vehicle depart="64" id="veh2789" route="route26" type="Car" />
  <vehicle depart="65" id="veh1178" route="route12" type="Car" />
  <vehicle depart="68" id="veh51" route="route4" type="Car" />
  <vehicle depart="68" id="veh3490" route="route28" type="Car" />
  <vehicle depart="69" id="veh556" route="route6" type="Car" />
  <vehicle depart="69" id="veh2553" route="route25" type="Car" />
  <vehicle depart="69" id="veh3871" route="route30" type="Car" />
  <vehicle depart="70" id="veh586" route="route6" type="Car" />
  <vehicle depart="70" id="veh4052" route="route31" type="Car" />
  <vehicle depart="71" id="veh3178" route="route27" type="Car" />
  <vehicle depart="72" id="veh1615" route="route13" type="Car" />
  <vehicle depart="73" id="veh487" route="route5" type="Car" />
  <vehicle depart="74" id="veh439" route="route5" type="Car" />
  <vehicle depart="74" id="veh4007" route="route30" type="Car" />
  <vehicle depart="75" id="veh1622" route="route14" type="Car" />
  <vehicle depart="75" id="veh4490" route="route65" type="Car" />
  <vehicle depart="76" id="veh1300" route="route12" type="Car" />
  <vehicle depart="76" id="veh2733" route="route26" type="Car" />
  <vehicle depart="79" id="veh1104" route="route12" type="Car" />
  <vehicle depart="79" id="veh3640" route="route29" type="Car" />
  <vehicle depart="80" id="veh4395" route="route49" type="Car" />
  <vehicle depart="81" id="veh2552" route="route25" type="Car" />
  <vehicle depart="82" id="veh874" route="route7" type="Car" />
  <vehicle depart="82" id="veh4179" route="route31" type="Car" />
  <vehicle depart="83" id="veh1752" route="route14" type="Car" />
  <vehicle depart="83" id="veh3318" route="route28" type="Car" />
  <vehicle depart="83" id="veh3421" route="route28" type="Car" />
  <vehicle depart="84" id="veh3236" route="route27" type="Car" />
  <vehicle depart="85" id="veh3331" route="route28" type="Car" />
  <vehicle depart="86" id="veh1486" route="route13" type="Car" />
  <vehicle depart="87" id="veh2898" route="route26" type="Car" />
  <vehicle depart="87" id="veh4166" route="route31" type="Car" />
  <vehicle depart="88" id="veh4489" route="route65" type="Car" />
  <vehicle depart="89" id="veh1539" route="route13" type="Car" />
  <vehicle depart="90" id="veh3430" route="route28" type="Car" />
  <vehicle depart="91" id="veh2981" route="route27" type="Car" />
  <vehicle depart="91" id="veh3225" route="route27" type="Car" />
  <vehicle depart="91" id="veh3598" route="route29" type="Car" />
  <vehicle depart="92" id="veh2104" route="route15" type="Car" />
  <vehicle depart="92" id="veh2624" route="route25" type="Car" />
  <vehicle depart="93" id="veh1112" route="route12" type="Car" />
  <vehicle depart="93" id="veh2270" route="route24" type="Car" />
  <vehicle depart="93" id="veh2747" route="route26" type="Car" />
  <vehicle depart="93" id="veh4130" route="route31" type="Car" />
  <vehicle depart="94" id="veh2456" route="route25" type="Car" />
  <vehicle depart="95" id="veh1932" route="route15" type="Car" />
  <vehicle depart="95" id="veh3951" route="route30" type="Car" />
  <vehicle depart="96" id="veh247" route="route4" type="Car" />
  <vehicle depart="96" id="veh2236" route="route24" type="Car" />
  <vehicle depart="96" id="veh2399" route="route24" type="Car" />
  <vehicle depart="97" id="veh77" route="route4" type="Car" />
  <vehicle depart="97" id="veh1475" route="route13" type="Car" />
  <vehicle depart="98" id="veh3051" route="route27" type="Car" />
  <vehicle depart="100" id="veh1476" route="route13" type="Car" />
  <vehicle depart="101" id="veh1704" route="route14" type="Car" />
  <vehicle depart="102" id="veh100" route="route4" type="Car" />
  <vehicle depart="103" id="veh2807" route="route26" type="Car" />
  <vehicle depart="104" id="veh1099" route="route12" type="Car" />
  <vehicle depart="105" id="veh1748" route="route14" type="Car" />
  <vehicle depart="105" id="veh3448" route="route28" type="Car" />
  <vehicle depart="106" id="veh4452" route="route59" type="Car" />
  <vehicle depart="108" id="veh622" route="route6" type="Car" />
  <vehicle depart="111" id="veh1287" route="route12" type="Car" />
  <vehicle depart="111" id="veh2065" route="route15" type="Car" />
  <vehicle depart="111" id="veh3838" route="route30" type="Car" />
  <vehicle depart="112" id="veh2354" route="route24" type="Car" />
  <vehicle depart="112" id="veh2830" route="route26" type="Car" />
  <vehicle depart="112" id="veh3423" route="route28" type="Car" />
  <vehicle depart="112" id="veh3771" route="route30" type="Car" />
  <vehicle depart="113" id="veh3941" route="route30" type="Car" />
  <vehicle depart="116" id="veh256" route="route4" type="Car" />
  <vehicle depart="116" id="veh1188" route="route12" type="Car" />
  <vehicle depart="116" id="veh4089" route="route31" type="Car" />
  <vehicle depart="117" id="veh1045" route="route7" type="Car" />
  <vehicle depart="118" id="veh552" route="route6" type="Car" />
  <vehicle depart="118" id="veh3061" route="route27" type="Car" />
  <vehicle depart="119" id="veh1096" route="route12" type="Car" />
  <vehicle depart="119" id="veh2224" route="route24" type="Car" />
  <vehicle depart="119" id="veh3518" route="route29" type="Car" />
  <vehicle depart="119" id="veh3997" route="route30" type="Car" />
  <vehicle depart="123" id="veh719" route="route6" type="Car" />
  <vehicle depart="123" id="veh1699" route="route14" type="Car" />
  <vehicle depart="124" id="veh2376" route="route24" type="Car" />
  <vehicle depart="125" id="veh2280" route="route24" type="Car" />
  <vehicle depart="125" id="veh3437" route="route28" type="Car" />
  <vehicle depart="126" id="veh3172" route="route27" type="Car" />
  <vehicle depart="127" id="veh3298" route="route28" type="Car" />
  <vehicle depart="127" id="veh4196" route="route31" type="Car" />
  <vehicle depart="128" id="veh1149" route="route12" type="Car" />
  <vehicle depart="128" id="veh3217" route="route27" type="Car" />
  <vehicle depart="128" id="veh3494" route="route28" type="Car" />
  <vehicle depart="129" id="veh1093" route="route11" type="Car" />
  <vehicle depart="129" id="veh1302" route="route12" type="Car" />
  <vehicle depart="130" id="veh617" route="route6" type="Car" />
  <vehicle depart="130" id="veh3111" route="route27" type="Car" />
  <vehicle depart="131" id="veh2332" route="route24" type="Car" />
  <vehicle depart="136" id="veh2046" route="route15" type="Car" />
  <vehicle depart="136" id="veh2447" route="route24" type="Car" />
  <vehicle depart="137" id="veh1509" route="route13" type="Car" />
  <vehicle depart="138" id="veh1356" route="route12" type="Car" />
  <vehicle depart="139" id="veh2020" route="route15" type="Car" />
  <vehicle depart="139" id="veh3644" route="route29" type="Car" />
  <vehicle depart="141" id="veh4422" route="route54" type="Car" />
  <vehicle depart="142" id="veh3093" route="route27" type="Car" />
  <vehicle depart="143" id="veh1317" route="route12" type="Car" />
  <vehicle depart="143" id="veh2134" route="route15" type="Car" />
  <vehicle depart="143" id="veh4156" route="route31" type="Car" />
  <vehicle depart="144" id="veh1598" route="route13" type="Car" />
  <vehicle depart="145" id="veh200" route="route4" type="Car" />
  <vehicle depart="145" id="veh1458" route="route13" type="Car" />
  <vehicle depart="145" id="veh3307" route="route28" type="Car" />
  <vehicle depart="145" id="veh3909" route="route30" type="Car" />
  <vehicle depart="145" id="veh4105" route="route31" type="Car" />
  <vehicle depart="146" id="veh2635" route="route25" type="Car" />
  <vehicle depart="146" id="veh2885" route="route26" type="Car" />
  <vehicle depart="147" id="veh1332" route="route12" type="Car" />
  <vehicle depart="149" id="veh1274" route="route12" type="Car" />
  <vehicle depart="149" id="veh4391" route="route49" type="Car" />
  <vehicle depart="150" id="veh311" route="route5" type="Car" />
  <vehicle depart="151" id="veh1214" route="route12" type="Car" />
  <vehicle depart="151" id="veh1415" route="route13" type="Car" />
  <vehicle depart="151" id="veh1462" route="route13" type="Car" />
  <vehicle depart="151" id="veh4305" route="route34" type="Car" />
  <vehicle depart="152" id="veh3938" route="route30" type="Car" />
  <vehicle depart="153" id="veh4026" route="route31" type="Car" />
  <vehicle depart="154" id="veh2004" route="route15" type="Car" />
  <vehicle depart="154" id="veh2365" route="route24" type="Car" />
  <vehicle depart="155" id="veh4419" route="route53" type="Car" />
  <vehicle depart="156" id="veh1393" route="route13" type="Car" />
  <vehicle depart="157" id="veh1366" route="route13" type="Car" />
  <vehicle depart="159" id="veh1313" route="route12" type="Car" />
  <vehicle depart="159" id="veh4239" route="route31" type="Car" />
  <vehicle depart="161" id="veh55" route="route4" type="Car" />
  <vehicle depart="162" id="veh3770" route="route30" type="Car" />
  <vehicle depart="163" id="veh1175" route="route12" type="Car" />
  <vehicle depart="163" id="veh1179" route="route12" type="Car" />
  <vehicle depart="164" id="veh2515" route="route25" type="Car" />
  <vehicle depart="164" id="veh3737" route="route29" type="Car" />
  <vehicle depart="165" id="veh207" route="route4" type="Car" />
  <vehicle depart="165" id="veh420" route="route5" type="Car" />
  <vehicle depart="165" id="veh921" route="route7" type="Car" />
  <vehicle depart="165" id="veh1318" route="route12" type="Car" />
  <vehicle depart="166" id="veh1858" route="route14" type="Car" />
  <vehicle depart="166" id="veh2314" route="route24" type="Car" />
  <vehicle depart="167" id="veh2647" route="route25" type="Car" />
  <vehicle depart="168" id="veh1599" route="route13" type="Car" />
  <vehicle depart="170" id="veh1402" route="route13" type="Car" />
  <vehicle depart="170" id="veh2832" route="route26" type="Car" />
  <vehicle depart="170" id="veh3387" route="route28" type="Car" />
  <vehicle depart="170" id="veh3527" route="route29" type="Car" />
  <vehicle depart="171" id="veh1059" route="route7" type="Car" />
  <vehicle depart="171" id="veh1251" route="route12" type="Car" />
  <vehicle depart="172" id="veh659" route="route6" type="Car" />
  <vehicle depart="172" id="veh721" route="route6" type="Car" />
  <vehicle depart="172" id="veh3188" route="route27" type="Car" />
  <vehicle depart="174" id="veh1241" route="route12" type="Car" />
  <vehicle depart="174" id="veh2248" route="route24" type="Car" />
  <vehicle depart="174" id="veh2944" route="route26" type="Car" />
  <vehicle depart="174" id="veh4416" route="route53" type="Car" />
  <vehicle depart="175" id="veh1443" route="route13" type="Car" />
  <vehicle depart="175" id="veh2748" route="route26" type="Car" />
  <vehicle depart="177" id="veh578" route="route6" type="Car" />
  <vehicle depart="180" id="veh2477" route="route25" type="Car" />
  <vehicle depart="180" id="veh2668" route="route25" type="Car" />
  <vehicle depart="180" id="veh3940" route="route30" type="Car" />
  <vehicle depart="180" id="veh3949" route="route30" type="Car" />
  <vehicle depart="182" id="veh717" route="route6" type="Car" />
  <vehicle depart="182" id="veh4000" route="route30" type="Car" />
  <vehicle depart="184" id="veh474" route="route5" type="Car" />
  <vehicle depart="184" id="veh2421" route="route24" type="Car" />
  <vehicle depart="186" id="veh1659" route="route14" type="Car" />
  <vehicle depart="190" id="veh2723" route="route26" type="Car" />
  <vehicle depart="191" id="veh3587" route="route29" type="Car" />
  <vehicle depart="193" id="veh94" route="route4" type="Car" />
  <vehicle depart="193" id="veh325" route="route5" type="Car" />
  <vehicle depart="193" id="veh840" route="route7" type="Car" />
  <vehicle depart="193" id="veh2694" route="route25" type="Car" />
  <vehicle depart="193" id="veh4283" route="route31" type="Car" />
  <vehicle depart="194" id="veh681" route="route6" type="Car" />
  <vehicle depart="195" id="veh2739" route="route26" type="Car" />
  <vehicle depart="196" id="veh92" route="route4" type="Car" />
  <vehicle depart="198" id="veh987" route="route7" type="Car" />
  <vehicle depart="198" id="veh1331" route="route12" type="Car" />
  <vehicle depart="199" id="veh2075" route="route15" type="Car" />
  <vehicle depart="200" id="veh2782" route="route26" type="Car" />
  <vehicle depart="201" id="veh3702" route="route29" type="Car" />
  <vehicle depart="202" id="veh66" route="route4" type="Car" />
  <vehicle depart="202" id="veh3509" route="route29" type="Car" />
  <vehicle depart="203" id="veh1221" route="route12" type="Car" />
  <vehicle depart="203" id="veh1520" route="route13" type="Car" />
  <vehicle depart="203" id="veh3730" route="route29" type="Car" />
  <vehicle depart="203" id="veh3863" route="route30" type="Car" />
  <vehicle depart="204" id="veh587" route="route6" type="Car" />
  <vehicle depart="204" id="veh3148" route="route27" type="Car" />
  <vehicle depart="205" id="veh1501" route="route13" type="Car" />
  <vehicle depart="205" id="veh2363" route="route24" type="Car" />
  <vehicle depart="206" id="veh1522" route="route13" type="Car" />
  <vehicle depart="206" id="veh2621" route="route25" type="Car" />
  <vehicle depart="207" id="veh4034" route="route31" type="Car" />
  <vehicle depart="210" id="veh30" route="route4" type="Car" />
  <vehicle depart="210" id="veh877" route="route7" type="Car" />
  <vehicle depart="210" id="veh2219" route="route24" type="Car" />
  <vehicle depart="210" id="veh2693" route="route25" type="Car" />
  <vehicle depart="210" id="veh4164" route="route31" type="Car" />
  <vehicle depart="211" id="veh243" route="route4" type="Car" />
  <vehicle depart="211" id="veh544" route="route5" type="Car" />
  <vehicle depart="211" id="veh2701" route="route25" type="Car" />
  <vehicle depart="211" id="veh3571" route="route29" type="Car" />
  <vehicle depart="212" id="veh995" route="route7" type="Car" />
  <vehicle depart="215" id="veh126" route="route4" type="Car" />
  <vehicle depart="215" id="veh1281" route="route12" type="Car" />
  <vehicle depart="215" id="veh4465" route="route61" type="Car" />
  <vehicle depart="216" id="veh864" route="route7" type="Car" />
  <vehicle depart="216" id="veh1439" route="route13" type="Car" />
  <vehicle depart="216" id="veh2955" route="route26" type="Car" />
  <vehicle depart="217" id="veh2865" route="route26" type="Car" />
  <vehicle depart="218" id="veh2663" route="route25" type="Car" />
  <vehicle depart="218" id="veh3705" route="route29" type="Car" />
  <vehicle depart="218" id="veh4263" route="route31" type="Car" />
  <vehicle depart="219" id="veh512" route="route5" type="Car" />
  <vehicle depart="219" id="veh1414" route="route13" type="Car" />
  <vehicle depart="222" id="veh1886" route="route15" type="Car" />
  <vehicle depart="222" id="veh2937" route="route26" type="Car" />
  <vehicle depart="222" id="veh3511" route="route29" type="Car" />
  <vehicle depart="223" id="veh3637" route="route29" type="Car" />
  <vehicle depart="224" id="veh1419" route="route13" type="Car" />
  <vehicle depart="227" id="veh213" route="route4" type="Car" />
  <vehicle depart="227" id="veh1109" route="route12" type="Car" />
  <vehicle depart="227" id="veh3911" route="route30" type="Car" />
  <vehicle depart="228" id="veh666" route="route6" type="Car" />
  <vehicle depart="228" id="veh2429" route="route24" type="Car" />
  <vehicle depart="231" id="veh168" route="route4" type="Car" />
  <vehicle depart="232" id="veh1831" route="route14" type="Car" />
  <vehicle depart="233" id="veh3551" route="route29" type="Car" />
  <vehicle depart="234" id="veh1155" route="route12" type="Car" />
  <vehicle depart="236" id="veh4033" route="route31" type="Car" />
  <vehicle depart="238" id="veh2846" route="route26" type="Car" />
  <vehicle depart="238" id="veh2896" route="route26" type="Car" />
  <vehicle depart="239" id="veh3714" route="route29" type="Car" />
  <vehicle depart="240" id="veh2194" route="route24" type="Car" />
  <vehicle depart="241" id="veh2141" route="route15" type="Car" />
  <vehicle depart="241" id="veh2755" route="route26" type="Car" />
  <vehicle depart="242" id="veh3859" route="route30" type="Car" />
  <vehicle depart="244" id="veh639" route="route6" type="Car" />
  <vehicle depart="245" id="veh2132" route="route15" type="Car" />
  <vehicle depart="245" id="veh3199" route="route27" type="Car" />
  <vehicle depart="247" id="veh3057" route="route27" type="Car" />
  <vehicle depart="249" id="veh2277" route="route24" type="Car" />
  <vehicle depart="250" id="veh1755" route="route14" type="Car" />
  <vehicle depart="250" id="veh1830" route="route14" type="Car" />
  <vehicle depart="250" id="veh2610" route="route25" type="Car" />
  <vehicle depart="253" id="veh3288" route="route28" type="Car" />
  <vehicle depart="253" id="veh3869" route="route30" type="Car" />
  <vehicle depart="253" id="veh4417" route="route53" type="Car" />
  <vehicle depart="254" id="veh3322" route="route28" type="Car" />
  <vehicle depart="254" id="veh4432" route="route56" type="Car" />
  <vehicle depart="255" id="veh839" route="route7" type="Car" />
  <vehicle depart="259" id="veh3273" route="route28" type="Car" />
  <vehicle depart="260" id="veh671" route="route6" type="Car" />
  <vehicle depart="262" id="veh427" route="route5" type="Car" />
  <vehicle depart="263" id="veh1735" route="route14" type="Car" />
  <vehicle depart="263" id="veh3213" route="route27" type="Car" />
  <vehicle depart="264" id="veh1269" route="route12" type="Car" />
  <vehicle depart="264" id="veh3550" route="route29" type="Car" />
  <vehicle depart="265" id="veh2449" route="route24" type="Car" />
  <vehicle depart="265" id="veh2677" route="route25" type="Car" />
  <vehicle depart="265" id="veh3020" route="route27" type="Car" />
  <vehicle depart="266" id="veh570" route="route6" type="Car" />
  <vehicle depart="266" id="veh2709" route="route25" type="Car" />
  <vehicle depart="267" id="veh1014" route="route7" type="Car" />
  <vehicle depart="267" id="veh1166" route="route12" type="Car" />
  <vehicle depart="267" id="veh3592" route="route29" type="Car" />
  <vehicle depart="270" id="veh1394" route="route13" type="Car" />
  <vehicle depart="270" id="veh1626" route="route14" type="Car" />
  <vehicle depart="270" id="veh2381" route="route24" type="Car" />
  <vehicle depart="271" id="veh84" route="route4" type="Car" />
  <vehicle depart="271" id="veh1906" route="route15" type="Car" />
  <vehicle depart="271" id="veh2241" route="route24" type="Car" />
  <vehicle depart="271" id="veh2611" route="route25" type="Car" />
  <vehicle depart="273" id="veh1324" route="route12" type="Car" />
  <vehicle depart="273" id="veh2884" route="route26" type="Car" />
  <vehicle depart="274" id="veh3370" route="route28" type="Car" />
  <vehicle depart="275" id="veh885" route="route7" type="Car" />
  <vehicle depart="275" id="veh3812" route="route30" type="Car" />
  <vehicle depart="278" id="veh3544" route="route29" type="Car" />
  <vehicle depart="279" id="veh797" route="route6" type="Car" />
  <vehicle depart="279" id="veh1400" route="route13" type="Car" />
  <vehicle depart="280" id="veh3105" route="route27" type="Car" />
  <vehicle depart="280" id="veh4270" route="route31" type="Car" />
  <vehicle depart="281" id="veh1286" route="route12" type="Car" />
  <vehicle depart="281" id="veh2121" route="route15" type="Car" />
  <vehicle depart="281" id="veh2485" route="route25" type="Car" />
  <vehicle depart="282" id="veh96" route="route4" type="Car" />
  <vehicle depart="282" id="veh1457" route="route13" type="Car" />
  <vehicle depart="283" id="veh2654" route="route25" type="Car" />
  <vehicle depart="283" id="veh3336" route="route28" type="Car" />
  <vehicle depart="284" id="veh2150" route="route17" type="Car" />
  <vehicle depart="285" id="veh1646" route="route14" type="Car" />