<?xml version='1.0' encoding='utf-8'?>
<routes>
  <vType accel="1.0" decel="5.0" id="Car" length="2.0" maxSpeed="70.0" sigma="0.0" />
  <route id="route0" edges="0_0i 0_1o r1_0_1 1_0i 1_2o r2_1_2 2_0i 2_2o" />
  <route id="route1" edges="0_2i 0_1o r1_0_1 1_0i 1_2o r2_1_2 2_0i 2_2o" />
  <route id="route2" edges="1_3i 1_2o r2_1_2 2_0i 2_2o" />
  <vehicle depart="3" id="veh1173" route="route1" type="Car" />
  <vehicle depart="7" id="veh1082" route="route1" type="Car" />
  <vehicle depart="7" id="veh2501" route="route2" type="Car" />
  <vehicle depart="8" id="veh1930" route="route2" type="Car" />
  <vehicle depart="10" id="veh325" route="route0" type="Car" />
  <vehicle depart="11" id="veh2789" route="route2" type="Car" />
  <vehicle depart="12" id="veh959" route="route1" type="Car" />
  <vehicle depart="13" id="veh61" route="route0" type="Car" />
  <vehicle depart="13" id="veh404" route="route0" type="Car" />
  <vehicle depart="13" id="veh518" route="route0" type="Car" />
  <vehicle depart="14" id="veh600" route="route0" type="Car" />
  <vehicle depart="16" id="veh516" route="route0" type="Car" />
  <vehicle depart="18" id="veh885" route="route1" type="Car" />
  <vehicle depart="18" id="veh1742" route="route2" type="Car" />
  <vehicle depart="20" id="veh732" route="route0" type="Car" />
  <vehicle depart="21" id="veh1648" route="route1" type="Car" />
  <vehicle depart="21" id="veh1910" route="route2" type="Car" />
  <vehicle depart="22" id="veh691" route="route0" type="Car" />
  <vehicle depart="24" id="veh2005" route="route2" type="Car" />
  <vehicle depart="25" id="veh67" route="route0" type="Car" />
  <vehicle depart="25" id="veh2614" route="route2" type="Car" />
  <vehicle depart="28" id="veh2042" route="route2" type="Car" />
  <vehicle depart="29" id="veh1527" route="route1" type="Car" />
  <vehicle depart="31" id="veh933" route="route1" type="Car" />
  <vehicle depart="31" id="veh2638" route="route2" type="Car" />
  <vehicle depart="31" id="veh2826" route="route2" type="Car" />
  <vehicle depart="33" id="veh339" route="route0" type="Car" />
  <vehicle depart="34" id="veh2716" route="route2" type="Car" />
  <vehicle depart="35" id="veh1226" route="route1" type="Car" />
  <vehicle depart="36" id="veh1373" route="route1" type="Car" />
  <vehicle depart="37" id="veh1907" route="route2" type="Car" />
  <vehicle depart="37" id="veh3085" route="route2" type="Car" />
  <vehicle depart="39" id="veh1712" route="route2" type="Car" />
  <vehicle depart="39" id="veh3108" route="route2" type="Car" />
  <vehicle depart="40" id="veh2752" route="route2" type="Car" />
  <vehicle depart="41" id="veh862" route="route1" type="Car" />
  <vehicle depart="41" id="veh1807" route="route2" type="Car" />
  <vehicle depart="42" id="veh2825" route="route2" type="Car" />
  <vehicle depart="46" id="veh460" route="route0" type="Car" />
  <vehicle depart="47" id="veh789" route="route0" type="Car" />
  <vehicle depart="48" id="veh3003" route="route2" type="Car" />
  <vehicle depart="48" id="veh3104" route="route2" type="Car" />
  <vehicle depart="49" id="veh593" route="route0" type="Car" />
  <vehicle depart="55" id="veh1276" route="route1" type="Car" />
  <vehicle depart="60" id="veh515" route="route0" type="Car" />
  <vehicle depart="60" id="veh1618" route="route1" type="Car" />
  <vehicle depart="61" id="veh1171" route="route1" type="Car" />
  <vehicle depart="61" id="veh1185" route="route1" type="Car" />
  <vehicle depart="61" id="veh1393" route="route1" type="Car" />
  <vehicle depart="61" id="veh1754" route="route2" type="Car" />
  <vehicle depart="65" id="veh2154" route="route2" type="Car" />
  <vehicle depart="65" id="veh3179" route="route2" type="Car" />
  <vehicle depart="68" id="veh2564" route="route2" type="Car" />
  <vehicle depart="69" id="veh364" route="route0" type="Car" />
  <vehicle depart="69" id="veh990" route="route1" type="Car" />
  <vehicle depart="69" id="veh1494" route="route1" type="Car" />
  <vehicle depart="70" id="veh2477" route="route2" type="Car" />
  <vehicle depart="70" id="veh2798" route="route2" type="Car" />
  <vehicle depart="71" id="veh2641" route="route2" type="Car" />
  <vehicle depart="73" id="veh1353" route="route1" type="Car" />
  <vehicle depart="73" id="veh2646" route="route2" type="Car" />
  <vehicle depart="77" id="veh48" route="route0" type="Car" />
  <vehicle depart="77" id="veh435" route="route0" type="Car" />
  <vehicle depart="77" id="veh635" route="route0" type="Car" />
  <vehicle depart="78" id="veh2690" route="route2" type="Car" />
  <vehicle depart="79" id="veh672" route="route0" type="Car" />
  <vehicle depart="80" id="veh2078" route="route2" type="Car" />
  <vehicle depart="81" id="veh1209" route="route1" type="Car" />
  <vehicle depart="83" id="veh704" route="route0" type="Car" />
  <vehicle depart="84" id="veh1508" route="route1" type="Car" />
  <vehicle depart="84" id="veh2574" route="route2" type="Car" />
  <vehicle depart="85" id="veh369" route="route0" type="Car" />
  <vehicle depart="85" id="veh2739" route="route2" type="Car" />
  <vehicle depart="89" id="veh1477" route="route1" type="Car" />
  <vehicle depart="90" id="veh1843" route="route2" type="Car" />
  <vehicle depart="90" id="veh1924" route="route2" type="Car" />
  <vehicle depart="92" id="veh1369" route="route1" type="Car" />
  <vehicle depart="94" id="veh1723" route="route2" type="Car" />
  <vehicle depart="95" id="veh3028" route="route2" type="Car" />
  <vehicle depart="96" id="veh2404" route="route2" type="Car" />
  <vehicle depart="96" id="veh2660" route="route2" type="Car" />
  <vehicle depart="98" id="veh850" route="route1" type="Car" />
  <vehicle depart="98" id="veh1292" route="route1" type="Car" />
  <vehicle depart="99" id="veh169" route="route0" type="Car" />
  <vehicle depart="102" id="veh1885" route="route2" type="Car" />
  <vehicle depart="104" id="veh528" route="route0" type="Car" />
  <vehicle depart="104" id="veh2499" route="route2" type="Car" />
  <vehicle depart="108" id="veh2576" route="route2" type="Car" />
  <vehicle depart="108" id="veh2749" route="route2" type="Car" />
  <vehicle depart="109" id="veh873" route="route1" type="Car" />
  <vehicle depart="110" id="veh216" route="route0" type="Car" />
  <vehicle depart="110" id="veh2071" route="route2" type="Car" />
  <vehicle depart="112" id="veh621" route="route0" type="Car" />
  <vehicle depart="113" id="veh2639" route="route2" type="Car" />
  <vehicle depart="116" id="veh150" route="route0" type="Car" />
  <vehicle depart="117" id="veh1589" route="route1" type="Car" />
  <vehicle depart="118" id="veh2503" route="route2" type="Car" />
  <vehicle depart="123" id="veh1529" route="route1" type="Car" />
  <vehicle depart="125" id="veh2034" route="route2" type="Car" />
  <vehicle depart="126" id="veh1952" route="route2" type="Car" />
  <vehicle depart="133" id="veh718" route="route0" type="Car" />
  <vehicle depart="133" id="veh737" route="route0" type="Car" />
  <vehicle depart="134" id="veh52" route="route0" type="Car" />
  <vehicle depart="136" id="veh942" route="route1" type="Car" />
  <vehicle depart="137" id="veh1104" route="route1" type="Car" />
  <vehicle depart="139" id="veh444" route="route0" type="Car" />
  <vehicle depart="139" id="veh1625" route="route1" type="Car" />
  <vehicle depart="145" id="veh1563" route="route1" type="Car" />
  <vehicle depart="145" id="veh3162" route="route2" type="Car" />
  <vehicle depart="146" id="veh1459" route="route1" type="Car" />
  <vehicle depart="148" id="veh2546" route="route2" type="Car" />
  <vehicle depart="149" id="veh2290" route="route2" type="Car" />
  <vehicle depart="151" id="veh769" route="route0" type="Car" />
  <vehicle depart="151" id="veh1387" route="route1" type="Car" />
  <vehicle depart="151" id="veh3030" route="route2" type="Car" />
  <vehicle depart="152" id="veh1328" route="route1" type="Car" />
  <vehicle depart="154" id="veh156" route="route0" type="Car" />
  <vehicle depart="154" id="veh193" route="route0" type="Car" />
  <vehicle depart="157" id="veh652" route="route0" type="Car" />
  <vehicle depart="158" id="veh429" route="route0" type="Car" />
  <vehicle depart="158" id="veh971" route="route1" type="Car" />
  <vehicle depart="159" id="veh2650" route="route2" type="Car" />
  <vehicle depart="160" id="veh5" route="route0" type="Car" />
  <vehicle depart="162" id="veh517" route="route0" type="Car" />
  <vehicle depart="164" id="veh1683" route="route2" type="Car" />
  <vehicle depart="166" id="veh2632" route="route2" type="Car" />
  <vehicle depart="168" id="veh540" route="route0" type="Car" />
  <vehicle depart="168" id="veh2643" route="route2" type="Car" />
  <vehicle depart="168" id="veh2736" route="route2" type="Car" />
  <vehicle depart="169" id="veh1793" route="route2" type="Car" />
  <vehicle depart="170" id="veh3134" route="route2" type="Car" />
  <vehicle depart="171" id="veh1914" route="route2" type="Car" />
  <vehicle depart="173" id="veh1968" route="route2" type="Car" />
  <vehicle depart="175" id="veh1087" route="route1" type="Car" />
  <vehicle depart="175" id="veh1883" route="route2" type="Car" />
  <vehicle depart="175" id="veh2834" route="route2" type="Car" />
  <vehicle depart="177" id="veh1359" route="route1" type="Car" />
  <vehicle depart="178" id="veh299" route="route0" type="Car" />
  <vehicle depart="178" id="veh1445" route="route1" type="Car" />
  <vehicle depart="178" id="veh2675" route="route2" type="Car" />
  <vehicle depart="180" id="veh2984" route="route2" type="Car" />
  <vehicle depart="182" id="veh2821" route="route2" type="Car" />
  <vehicle depart="182" id="veh2880" route="route2" type="Car" />
  <vehicle depart="183" id="veh2262" route="route2" type="Car" />
  <vehicle depart="188" id="veh592" route="route0" type="Car" />
  <vehicle depart="189" id="veh725" route="route0" type="Car" />
  <vehicle depart="189" id="veh2045" route="route2" type="Car" />
  <vehicle depart="190" id="veh358" route="route0" type="Car" />
  <vehicle depart="190" id="veh2624" route="route2" type="Car" />
  <vehicle depart="191" id="veh1124" route="route1" type="Car" />
  <vehicle depart="191" id="veh2935" route="route2" type="Car" />
  <vehicle depart="193" id="veh2634" route="route2" type="Car" />
  <vehicle depart="194" id="veh499" route="route0" type="Car" />
  <vehicle depart="194" id="veh2512" route="route2" type="Car" />
  <vehicle depart="195" id="veh2394" route="route2" type="Car" />
  <vehicle depart="198" id="veh2640" route="route2" type="Car" />
  <vehicle depart="199" id="veh142" route="route0" type="Car" />
  <vehicle depart="199" id="veh607" route="route0" type="Car" />
  <vehicle depart="199" id="veh1283" route="route1" type="Car" />
  <vehicle depart="199" id="veh1916" route="route2" type="Car" />
  <vehicle depart="202" id="veh273" route="route0" type="Car" />
  <vehicle depart="202" id="veh767" route="route0" type="Car" />
  <vehicle depart="203" id="veh1304" route="route1" type="Car" />
  <vehicle depart="204" id="veh2059" route="route2" type="Car" />
  <vehicle depart="205" id="veh1598" route="route1" type="Car" />
  <vehicle depart="206" id="veh858" route="route1" type="Car" />
  <vehicle depart="209" id="veh1204" route="route1" type="Car" />
  <vehicle depart="209" id="veh2833" route="route2" type="Car" />
  <vehicle depart="210" id="veh975" route="route1" type="Car" />
  <vehicle depart="210" id="veh1558" route="route1" type="Car" />
  <vehicle depart="212" id="veh605" route="route0" type="Car" />
  <vehicle depart="213" id="veh818" route="route0" type="Car" />
  <vehicle depart="213" id="veh1388" route="route1" type="Car" />
  <vehicle depart="215" id="veh1410" route="route1" type="Car" />
  <vehicle depart="217" id="veh1970" route="route2" type="Car" />
  <vehicle depart="220" id="veh2091" route="route2" type="Car" />
  <vehicle depart="221" id="veh719" route="route0" type="Car" />
  <vehicle depart="222" id="veh1068" route="route1" type="Car" />
  <vehicle depart="223" id="veh1056" route="route1" type="Car" />
  <vehicle depart="224" id="veh1893" route="route2" type="Car" />
  <vehicle depart="230" id="veh177" route="route0" type="Car" />
  <vehicle depart="231" id="veh1465" route="route1" type="Car" />
  <vehicle depart="233" id="veh2649" route="route2" type="Car" />
  <vehicle depart="234" id="veh1396" route="route1" type="Car" />
  <vehicle depart="236" id="veh1532" route="route1" type="Car" />
  <vehicle depart="237" id="veh1546" route="route1" type="Car" />
  <vehicle depart="238" id="veh490" route="route0" type="Car" />
  <vehicle depart="240" id="veh1332" route="route1" type="Car" />
  <vehicle depart="241" id="veh2199" route="route2" type="Car" />
  <vehicle depart="242" id="veh1301" route="route1" type="Car" />
  <vehicle depart="242" id="veh2831" route="route2" type="Car" />
  <vehicle depart="243" id="veh863" route="route1" type="Car" />
  <vehicle depart="244" id="veh1766" route="route2" type="Car" />
  <vehicle depart="246" id="veh1386" route="route1" type="Car" />
  <vehicle depart="246" id="veh2923" route="route2" type="Car" />
  <vehicle depart="247" id="veh1917" route="route2" type="Car" />
  <vehicle depart="247" id="veh2058" route="route2" type="Car" />
  <vehicle depart="247" id="veh2068" route="route2" type="Car" />
  <vehicle depart="247" id="veh2889" route="route2" type="Car" />
  <vehicle depart="248" id="veh1433" route="route1" type="Car" />
  <vehicle depart="250" id="veh1194" route="route1" type="Car" />
  <vehicle depart="250" id="veh1696" route="route2" type="Car" />
  <vehicle depart="251" id="veh1297" route="route1" type="Car" />
  <vehicle depart="252" id="veh361" route="route0" type="Car" />
  <vehicle depart="252" id="veh1284" route="route1" type="Car" />
  <vehicle depart="255" id="veh1058" route="route1" type="Car" />
  <vehicle depart="255" id="veh1259" route="route1" type="Car" />
  <vehicle depart="256" id="veh1079" route="route1" type="Car" />
  <vehicle depart="257" id="veh1934" route="route2" type="Car" />
  <vehicle depart="259" id="veh2594" route="route2" type="Car" />
  <vehicle depart="261" id="veh527" route="route0" type="Car" />
  <vehicle depart="262" id="veh240" route="route0" type="Car" />
  <vehicle depart="263" id="veh324" route="route0" type="Car" />
  <vehicle depart="264" id="veh2976" route="route2" type="Car" />
  <vehicle depart="265" id="veh1588" route="route1" type="Car" />
  <vehicle depart="267" id="veh1092" route="route1" type="Car" />
  <vehicle depart="267" id="veh1738" route="route2" type="Car" />
  <vehicle depart="267" id="veh2246" route="route2" type="Car" />
  <vehicle depart="268" id="veh1051" route="route1" type="Car" />
  <vehicle depart="270" id="veh2464" route="route2" type="Car" />
  <vehicle depart="272" id="veh1237" route="route1" type="Car" />
  <vehicle depart="272" id="veh2165" route="route2" type="Car" />
  <vehicle depart="272" id="veh2244" route="route2" type="Car" />
  <vehicle depart="277" id="veh1434" route="route1" type="Car" />
  <vehicle depart="279" id="veh192" route="route0" type="Car" />
  <vehicle depart="279" id="veh2397" route="route2" type="Car" />
  <vehicle depart="280" id="veh2493" route="route2" type="Car" />
  <vehicle depart="281" id="veh595" route="route0" type="Car" />
  <vehicle depart="282" id="veh1541" route="route1" type="Car" />
  <vehicle depart="282" id="veh3071" route="route2" type="Car" />
  <vehicle depart="283" id="veh1837" route="route2" type="Car" />
  <vehicle depart="283" id="veh2748" route="route2" type="Car" />
  <vehicle depart="286" id="veh657" route="route0" type="Car" />
  <vehicle depart="287" id="veh1239" route="route1" type="Car" />
  <vehicle depart="289" id="veh421" route="route0" type="Car" />
  <vehicle depart="291" id="veh403" route="route0" type="Car" />
  <vehicle depart="291" id="veh1722" route="route2" type="Car" />
  <vehicle depart="292" id="veh3076" route="route2" type="Car" />
  <vehicle depart="294" id="veh143" route="route0" type="Car" />
  <vehicle depart="295" id="veh1223" route="route1" type="Car" />
  <vehicle depart="295" id="veh3132" route="route2" type="Car" />
  <vehicle depart="296" id="veh1507" route="route1" type="Car" />
  <vehicle depart="297" id="veh1549" route="route1" type="Car" />
  <vehicle depart="297" id="veh1966" route="route2" type="Car" />
  <vehicle depart="297" id="veh2982" route="route2" type="Car" />
  <vehicle depart="299" id="veh1983" route="route2" type="Car" />
  <vehicle depart="300" id="veh257" route="route0" type="Car" />
  <vehicle depart="300" id="veh2108" route="route2" type="Car" />
  <vehicle depart="301" id="veh1806" route="route2" type="Car" />
  <vehicle depart="302" id="veh1200" route="route1" type="Car" />
  <vehicle depart="303" id="veh289" route="route0" type="Car" />
  <vehicle depart="308" id="veh3107" route="route2" type="Car" />
  <vehicle depart="309" id="veh708" route="route0" type="Car" />
  <vehicle depart="309" id="veh1253" route="route1" type="Car" />
  <vehicle depart="309" id="veh2381" route="route2" type="Car" />
  <vehicle depart="309" id="veh2396" route="route2" type="Car" />
  <vehicle depart="309" id="veh2903" route="route2" type="Car" />
  <vehicle depart="311" id="veh2332" route="route2" type="Car" />
  <vehicle depart="311" id="veh2764" route="route2" type="Car" />
  <vehicle depart="313" id="veh647" route="route0" type="Car" />
  <vehicle depart="314" id="veh1974" route="route2" type="Car" />
  <vehicle depart="316" id="veh941" route="route1" type="Car" />
  <vehicle depart="316" id="veh1633" route="route1" type="Car" />
  <vehicle depart="318" id="veh2173" route="route2" type="Car" />
  <vehicle depart="319" id="veh2720" route="route2" type="Car" />
  <vehicle depart="320" id="veh2238" route="route2" type="Car" />
  <vehicle depart="324" id="veh3073" route="route2" type="Car" />
  <vehicle depart="330" id="veh1705" route="route2" type="Car" />
  <vehicle depart="330" id="veh2997" route="route2" type="Car" />
  <vehicle depart="332" id="veh1735" route="route2" type="Car" />
  <vehicle depart="335" id="veh2160" route="route2" type="Car" />
  <vehicle depart="336" id="veh897" route="route1" type="Car" />
  <vehicle depart="338" id="veh89" route="route0" type="Car" />
  <vehicle depart="338" id="veh2298" route="route2" type="Car" />
  <vehicle depart="339" id="veh209" route="route0" type="Car" />
  <vehicle depart="340" id="veh168" route="route0" type="Car" />
  <vehicle depart="340" id="veh2102" route="route2" type="Car" />
  <vehicle depart="341" id="veh3117" route="route2" type="Car" />
  <vehicle depart="343" id="veh489" route="route0" type="Car" />
  <vehicle depart="343" id="veh577" route="route0" type="Car" />
  <vehicle depart="344" id="veh304" route="route0" type="Car" />
  <vehicle depart="344" id="veh1877" route="route2" type="Car" />
  <vehicle depart="346" id="veh2648" route="route2" type="Car" />
  <vehicle depart="347" id="veh581" route="route0" type="Car" />
  <vehicle depart="348" id="veh1841" route="route2" type="Car" />
  <vehicle depart="349" id="veh1578" route="route1" type="Car" />
  <vehicle depart="350" id="veh1419" route="route1" type="Car" />
  <vehicle depart="351" id="veh153" route="route0" type="Car" />
  <vehicle depart="351" id="veh1013" route="route1" type="Car" />
  <vehicle depart="351" id="veh2612" route="route2" type="Car" />
  <vehicle depart="353" id="veh2783" route="route2" type="Car" />
  <vehicle depart="353" id="veh2859" route="route2" type="Car" />
  <vehicle depart="354" id="veh2557" route="route2" type="Car" />
  <vehicle depart="355" id="veh0" route="route0" type="Car" />
  <vehicle depart="356" id="veh730" route="route0" type="Car" />
  <vehicle depart="356" id="veh1037" route="route1" type="Car" />
  <vehicle depart="356" id="veh2137" route="route2" type="Car" />
  <vehicle depart="357" id="veh564" route="route0" type="Car" />
  <vehicle depart="357" id="veh1646" route="route1" type="Car" />
  <vehicle depart="360" id="veh2017" route="route2" type="Car" />
  <vehicle depart="362" id="veh360" route="route0" type="Car" />
  <vehicle depart="363" id="veh33" route="route0" type="Car" />
  <vehicle depart="363" id="veh1509" route="route1" type="Car" />
  <vehicle depart="363" id="veh2928" route="route2" type="Car" />
  <vehicle depart="365" id="veh1428" route="route1" type="Car" />
  <vehicle depart="366" id="veh1702" route="route2" type="Car" />
  <vehicle depart="368" id="veh1228" route="route1" type="Car" />
  <vehicle depart="368" id="veh2046" route="route2" type="Car" />
  <vehicle depart="370" id="veh538" route="route0" type="Car" />
  <vehicle depart="370" id="veh2186" route="route2" type="Car" />
  <vehicle depart="371" id="veh888" route="route1" type="Car" />
  <vehicle depart="371" id="veh1827" route="route2" type="Car" />
  <vehicle depart="372" id="veh2387" route="route2" type="Car" />
  <vehicle depart="372" id="veh2719" route="route2" type="Car" />
  <vehicle depart="373" id="veh901" route="route1" type="Car" />
  <vehicle depart="373" id="veh953" route="route1" type="Car" />
  <vehicle depart="373" id="veh3004" route="route2" type="Car" />
  <vehicle depart="374" id="veh95" route="route0" type="Car" />
  <vehicle depart="374" id="veh796" route="route0" type="Car" />
  <vehicle depart="374" id="veh2003" route="route2" type="Car" />
  <vehicle depart="379" id="veh1091" route="route1" type="Car" />
  <vehicle depart="381" id="veh2239" route="route2" type="Car" />
  <vehicle depart="382" id="veh2864" route="route2" type="Car" />
  <vehicle depart="384" id="veh412" route="route0" type="Car" />
  <vehicle depart="384" id="veh1134" route="route1" type="Car" />
  <vehicle depart="385" id="veh982" route="route1" type="Car" />
  <vehicle depart="385" id="veh2808" route="route2" type="Car" />
  <vehicle depart="387" id="veh2258" route="route2" type="Car" />
  <vehicle depart="389" id="veh473" route="route0" type="Car" />
  <vehicle depart="389" id="veh977" route="route1" type="Car" />
  <vehicle depart="393" id="veh1466" route="route1" type="Car" />
  <vehicle depart="393" id="veh3048" route="route2" type="Car" />
  <vehicle depart="395" id="veh2282" route="route2" type="Car" />
  <vehicle depart="396" id="veh271" route="route0" type="Car" />
  <vehicle depart="396" id="veh1020" route="route1" type="Car" />
  <vehicle depart="396" id="veh2276" route="route2" type="Car" />
  <vehicle depart="396" id="veh3089" route="route2" type="Car" />
  <vehicle depart="397" id="veh1384" route="route1" type="Car" />
  <vehicle depart="399" id="veh2152" route="route2" type="Car" />
  <vehicle depart="400" id="veh250" route="route0" type="Car" />
  <vehicle depart="401" id="veh1294" route="route1" type="Car" />
  <vehicle depart="401" id="veh1478" route="route1" type="Car" />
  <vehicle depart="402" id="veh656" route="route0" type="Car" />
  <vehicle depart="402" id="veh1411" route="route1" type="Car" />
  <vehicle depart="404" id="veh3093" route="route2" type="Car" />
  <vehicle depart="405" id="veh2828" route="route2" type="Car" />
  <vehicle depart="406" id="veh1362" route="route1" type="Car" />
  <vehicle depart="411" id="veh887" route="route1" type="Car" />
  <vehicle depart="412" id="veh136" route="route0" type="Car" />
  <vehicle depart="414" id="veh1757" route="route2" type="Car" />
  <vehicle depart="414" id="veh1822" route="route2" type="Car" />
  <vehicle depart="415" id="veh230" route="route0" type="Car" />
  <vehicle depart="418" id="veh614" route="route0" type="Car" />
  <vehicle depart="420" id="veh763" route="route0" type="Car" />
  <vehicle depart="422" id="veh164" route="route0" type="Car" />
  <vehicle depart="422" id="veh191" route="route0" type="Car" />
  <vehicle depart="423" id="veh1347" route="route1" type="Car" />
  <vehicle depart="424" id="veh1271" route="route1" type="Car" />
  <vehicle depart="424" id="veh1862" route="route2" type="Car" />
  <vehicle depart="424" id="veh2140" route="route2" type="Car" />
  <vehicle depart="425" id="veh303" route="route0" type="Car" />
  <vehicle depart="426" id="veh167" route="route0" type="Car" />
  <vehicle depart="426" id="veh1851" route="route2" type="Car" />
  <vehicle depart="427" id="veh1714" route="route2" type="Car" />
  <vehicle depart="429" id="veh1636" route="route1" type="Car" />
  <vehicle depart="431" id="veh1687" route="route2" type="Car" />
  <vehicle depart="431" id="veh2214" route="route2" type="Car" />
  <vehicle depart="432" id="veh1380" route="route1" type="Car" />
  <vehicle depart="433" id="veh962" route="route1" type="Car" />
  <vehicle depart="434" id="veh2267" route="route2" type="Car" />
  <vehicle depart="435" id="veh42" route="route0" type="Car" />
  <vehicle depart="435" id="veh2998" route="route2" type="Car" />
  <vehicle depart="436" id="veh1987" route="route2" type="Car" />
  <vehicle depart="437" id="veh2755" route="route2" type="Car" />
  <vehicle depart="438" id="veh531" route="route0" type="Car" />
  <vehicle depart="439" id="veh416" route="route0" type="Car" />
  <vehicle depart="439" id="veh3126" route="route2" type="Car" />
  <vehicle depart="440" id="veh1096" route="route1" type="Car" />
  <vehicle depart="441" id="veh1160" route="route1" type="Car" />
  <vehicle depart="441" id="veh1684" route="route2" type="Car" />
  <vehicle depart="441" id="veh2955" route="route2" type="Car" />
  <vehicle depart="442" id="veh2060" route="route2" type="Car" />
  <vehicle depart="442" id="veh2817" route="route2" type="Car" />
  <vehicle depart="443" id="veh1311" route="route1" type="Car" />
  <vehicle depart="444" id="veh417" route="route0" type="Car" />
  <vehicle depart="445" id="veh1355" route="route1" type="Car" />
  <vehicle depart="445" id="veh1679" route="route2" type="Car" />
  <vehicle depart="445" id="veh1704" route="route2" type="Car" />
  <vehicle depart="445" id="veh3147" route="route2" type="Car" />
  <vehicle depart="447" id="veh968" route="route1" type="Car" />
  <vehicle depart="449" id="veh314" route="route0" type="Car" />
  <vehicle depart="451" id="veh400" route="route0" type="Car" />
  <vehicle depart="452" id="veh633" route="route0" type="Car" />
  <vehicle depart="453" id="veh831" route="route1" type="Car" />
  <vehicle depart="453" id="veh2489" route="route2" type="Car" />
  <vehicle depart="455" id="veh413" route="route0" type="Car" />
  <vehicle depart="456" id="veh608" route="route0" type="Car" />
  <vehicle depart="457" id="veh526" route="route0" type="Car" />
  <vehicle depart="459" id="veh2379" route="route2" type="Car" />
  <vehicle depart="462" id="veh2333" route="route2" type="Car" />
  <vehicle depart="466" id="veh411" route="route0" type="Car" />
  <vehicle depart="466" id="veh1457" route="route1" type="Car" />
  <vehicle depart="467" id="veh1597" route="route1" type="Car" />
  <vehicle depart="468" id="veh620" route="route0" type="Car" />
  <vehicle depart="468" id="veh903" route="route1" type="Car" />
  <vehicle depart="468" id="veh1530" route="route1" type="Car" />
  <vehicle depart="470" id="veh357" route="route0" type="Car" />
  <vehicle depart="470" id="veh1230" route="route1" type="Car" />
  <vehicle depart="470" id="veh1354" route="route1" type="Car" />
  <vehicle depart="471" id="veh1029" route="route1" type="Car" />
  <vehicle depart="473" id="veh3045" route="route2" type="Car" />
  <vehicle depart="475" id="veh382" route="route0" type="Car" />
  <vehicle depart="475" id="veh1266" route="route1" type="Car" />
  <vehicle depart="475" id="veh3143" route="route2" type="Car" />
  <vehicle depart="476" id="veh2197" route="route2" type="Car" />
  <vehicle depart="477" id="veh2867" route="route2" type="Car" />
  <vehicle depart="480" id="veh270" route="route0" type="Car" />
  <vehicle depart="481" id="veh3010" route="route2" type="Car" />
  <vehicle depart="485" id="veh1647" route="route1" type="Car" />
  <vehicle depart="486" id="veh1073" route="route1" type="Car" />
  <vehicle depart="488" id="veh1975" route="route2" type="Car" />
  <vehicle depart="488" id="veh2560" route="route2" type="Car" />
  <vehicle depart="488" id="veh2936" route="route2" type="Car" />
  <vehicle depart="490" id="veh135" route="route0" type="Car" />
  <vehicle depart="491" id="veh1470" route="route1" type="Car" />
  <vehicle depart="491" id="veh1965" route="route2" type="Car" />
  <vehicle depart="491" id="veh2307" route="route2" type="Car" />
  <vehicle depart="491" id="veh2717" route="route2" type="Car" />
  <vehicle depart="492" id="veh1203" route="route1" type="Car" />
  <vehicle depart="492" id="veh2040" route="route2" type="Car" />
  <vehicle depart="493" id="veh1938" route="route2" type="Car" />
  <vehicle depart="494" id="veh1243" route="route1" type="Car" />
  <vehicle depart="496" id="veh2219" route="route2" type="Car" />
  <vehicle depart="497" id="veh2009" route="route2" type="Car" />
  <vehicle depart="499" id="veh2189" route="route2" type="Car" />
  <vehicle depart="500" id="veh624" route="route0" type="Car" />
  <vehicle depart="501" id="veh1272" route="route1" type="Car" />
  <vehicle depart="501" id="veh1422" route="route1" type="Car" />
  <vehicle depart="503" id="veh1539" route="route1" type="Car" />
  <vehicle depart="504" id="veh464" route="route0" type="Car" />
  <vehicle depart="505" id="veh343" route="route0" type="Car" />
  <vehicle depart="505" id="veh1755" route="route2" type="Car" />
  <vehicle depart="506" id="veh39" route="route0" type="Car" />
  <vehicle depart="510" id="veh706" route="route0" type="Car" />
  <vehicle depart="511" id="veh1011" route="route1" type="Car" />
  <vehicle depart="515" id="veh2374" route="route2" type="Car" />
  <vehicle depart="516" id="veh2728" route="route2" type="Car" />
  <vehicle depart="517" id="veh1751" route="route2" type="Car" />
  <vehicle depart="519" id="veh181" route="route0" type="Car" />
  <vehicle depart="519" id="veh2727" route="route2" type="Car" />
  <vehicle depart="519" id="veh2977" route="route2" type="Car" />
  <vehicle depart="521" id="veh575" route="route0" type="Car" />
  <vehicle depart="521" id="veh1021" route="route1" type="Car" />