<?xml version='1.0' encoding='utf-8'?>
<routes>
  <vType accel="1.0" decel="5.0" id="Car" length="2.0" maxSpeed="70.0" sigma="0.0" />
  <route id="route0" edges="0_0i 0_1o r1_0_1 1_0i 1_3o" />
  <route id="route1" edges="0_0i 0_1o r1_0_1 1_0i 1_2o r2_1_2 2_0i 2_2o" />
  <route id="route2" edges="0_0i 0_1o r1_0_1 1_0i 1_1o r5_1_4 4_3i 4_0o" />
  <route id="route3" edges="0_0i 0_1o r1_0_1 1_0i 1_1o r5_1_4 4_3i 4_1o" />
  <route id="route4" edges="0_0i 0_1o r1_0_1 1_0i 1_1o r5_1_4 4_3i 4_2o r4_4_3 3_0i 3_1o" />
  <route id="route5" edges="0_0i 0_1o r1_0_1 1_0i 1_2o r2_1_2 2_0i 2_1o r3_2_3 3_3i 3_1o" />
  <route id="route6" edges="0_0i 0_1o r1_0_1 1_0i 1_1o r5_1_4 4_3i 4_2o r4_4_3 3_0i 3_2o" />
  <route id="route7" edges="0_0i 0_1o r1_0_1 1_0i 1_2o r2_1_2 2_0i 2_1o r3_2_3 3_3i 3_2o" />
  <route id="route8" edges="0_2i 0_1o r1_0_1 1_0i 1_3o" />
  <route id="route9" edges="0_2i 0_1o r1_0_1 1_0i 1_2o r2_1_2 2_0i 2_2o" />
  <route id="route10" edges="0_2i 0_1o r1_0_1 1_0i 1_1o r5_1_4 4_3i 4_0o" />
  <route id="route11" edges="0_2i 0_1o r1_0_1 1_0i 1_1o r5_1_4 4_3i 4_1o" />
  <route id="route12" edges="0_2i 0_1o r1_0_1 1_0i 1_1o r5_1_4 4_3i 4_2o r4_4_3 3_0i 3_1o" />
  <route id="route13" edges="0_2i 0_1o r1_0_1 1_0i 1_2o r2_1_2 2_0i 2_1o r3_2_3 3_3i 3_1o" />
  <route id="route14" edges="0_2i 0_1o r1_0_1 1_0i 1_1o r5_1_4 4_3i 4_2o r4_4_3 3_0i 3_2o" />
  <route id="route15" edges="0_2i 0_1o r1_0_1 1_0i 1_2o r2_1_2 2_0i 2_1o r3_2_3 3_3i 3_2o" />
  <route id="route16" edges="1_3i 1_0o r1_1_0 0_1i 0_0o" />
  <route id="route17" edges="1_3i 1_0o r1_1_0 0_1i 0_2o" />
  <route id="route18" edges="2_2i 2_0o r2_2_1 1_2i 1_0o r1_1_0 0_1i 0_0o" />
  <route id="route19" edges="2_2i 2_0o r2_2_1 1_2i 1_0o r1_1_0 0_1i 0_2o" />
  <route id="route20" edges="4_0i 4_3o r5_4_1 1_1i 1_0o r1_1_0 0_1i 0_0o" />
  <route id="route21" edges="4_0i 4_3o r5_4_1 1_1i 1_0o r1_1_0 0_1i 0_2o" />
  <route id="route22" edges="4_1i 4_3o r5_4_1 1_1i 1_0o r1_1_0 0_1i 0_0o" />
  <route id="route23" edges="4_1i 4_3o r5_4_1 1_1i 1_0o r1_1_0 0_1i 0_2o" />
  <route id="route24" edges="3_1i 3_0o r4_3_4 4_2i 4_3o r5_4_1 1_1i 1_0o r1_1_0 0_1i 0_0o" />
  <route id="route25" edges="3_1i 3_3o r3_3_2 2_1i 2_0o r2_2_1 1_2i 1_0o r1_1_0 0_1i 0_0o" />
  <route id="route26" edges="3_1i 3_0o r4_3_4 4_2i 4_3o r5_4_1 1_1i 1_0o r1_1_0 0_1i 0_2o" />
  <route id="route27" edges="3_1i 3_3o r3_3_2 2_1i 2_0o r2_2_1 1_2i 1_0o r1_1_0 0_1i 0_2o" />
  <route id="route28" edges="3_2i 3_0o r4_3_4 4_2i 4_3o r5_4_1 1_1i 1_0o r1_1_0 0_1i 0_0o" />
  <route id="route29" edges="3_2i 3_3o r3_3_2 2_1i 2_0o r2_2_1 1_2i 1_0o r1_1_0 0_1i 0_0o" />
  <route id="route30" edges="3_2i 3_0o r4_3_4 4_2i 4_3o r5_4_1 1_1i 1_0o r1_1_0 0_1i 0_2o" />
  <route id="route31" edges="3_2i 3_3o r3_3_2 2_1i 2_0o r2_2_1 1_2i 1_0o r1_1_0 0_1i 0_2o" />
  <route id="route32" edges="1_3i 1_2o r2_1_2 2_0i 2_2o" />
  <route id="route33" edges="1_3i 1_2o r2_1_2 2_0i 2_1o r3_2_3 3_3i 3_1o" />
  <route id="route34" edges="1_3i 1_2o r2_1_2 2_0i 2_1o r3_2_3 3_3i 3_2o" />
  <route id="route35" edges="4_0i 4_3o r5_4_1 1_1i 1_2o r2_1_2 2_0i 2_2o" />
  <route id="route36" edges="4_1i 4_3o r5_4_1 1_1i 1_2o r2_1_2 2_0i 2_2o" />
  <route id="route37" edges="2_2i 2_0o r2_2_1 1_2i 1_3o" />
  <route id="route38" edges="2_2i 2_0o r2_2_1 1_2i 1_1o r5_1_4 4_3i 4_0o" />
  <route id="route39" edges="2_2i 2_0o r2_2_1 1_2i 1_1o r5_1_4 4_3i 4_1o" />
  <route id="route40" edges="3_1i 3_3o r3_3_2 2_1i 2_0o r2_2_1 1_2i 1_3o" />
  <route id="route41" edges="3_2i 3_3o r3_3_2 2_1i 2_0o r2_2_1 1_2i 1_3o" />
  <route id="route42" edges="2_2i 2_1o r3_2_3 3_3i 3_0o r4_3_4 4_2i 4_0o" />
  <route id="route43" edges="2_2i 2_1o r3_2_3 3_3i 3_0o r4_3_4 4_2i 4_1o" />
  <route id="route44" edges="2_2i 2_1o r3_2_3 3_3i 3_1o" />
  <route id="route45" edges="2_2i 2_1o r3_2_3 3_3i 3_2o" />
  <route id="route46" edges="4_0i 4_2o r4_4_3 3_0i 3_3o r3_3_2 2_1i 2_2o" />
  <route id="route47" edges="4_1i 4_2o r4_4_3 3_0i 3_3o r3_3_2 2_1i 2_2o" />
  <route id="route48" edges="3_1i 3_3o r3_3_2 2_1i 2_2o" />
  <route id="route49" edges="3_2i 3_3o r3_3_2 2_1i 2_2o" />
  <route id="route50" edges="3_1i 3_0o r4_3_4 4_2i 4_3o r5_4_1 1_1i 1_3o" />
  <route id="route51" edges="3_1i 3_0o r4_3_4 4_2i 4_0o" />
  <route id="route52" edges="3_1i 3_0o r4_3_4 4_2i 4_1o" />
  <route id="route53" edges="3_2i 3_0o r4_3_4 4_2i 4_3o r5_4_1 1_1i 1_3o" />
  <route id="route54" edges="3_2i 3_0o r4_3_4 4_2i 4_0o" />
  <route id="route55" edges="3_2i 3_0o r4_3_4 4_2i 4_1o" />
  <route id="route56" edges="1_3i 1_1o r5_1_4 4_3i 4_2o r4_4_3 3_0i 3_1o" />
  <route id="route57" edges="1_3i 1_1o r5_1_4 4_3i 4_2o r4_4_3 3_0i 3_2o" />
  <route id="route58" edges="4_0i 4_2o r4_4_3 3_0i 3_1o" />
  <route id="route59" edges="4_0i 4_2o r4_4_3 3_0i 3_2o" />
  <route id="route60" edges="4_1i 4_2o r4_4_3 3_0i 3_1o" />
  <route id="route61" edges="4_1i 4_2o r4_4_3 3_0i 3_2o" />
  <route id="route62" edges="4_0i 4_3o r5_4_1 1_1i 1_3o" />
  <route id="route63" edges="4_1i 4_3o r5_4_1 1_1i 1_3o" />
  <route id="route64" edges="1_3i 1_1o r5_1_4 4_3i 4_0o" />
  <route id="route65" edges="1_3i 1_1o r5_1_4 4_3i 4_1o" />
  <vehicle depart="0" id="veh2748" route="route24" type="Car" />
  <vehicle depart="1" id="veh1324" route="route10" type="Car" />
  <vehicle depart="1" id="veh3163" route="route25" type="Car" />
  <vehicle depart="2" id="veh1668" route="route13" type="Car" />
  <vehicle depart="4" id="veh28" route="route3" type="Car" />
  <vehicle depart="4" id="veh1947" route="route13" type="Car" />
  <vehicle depart="4" id="veh4230" route="route28" type="Car" />
  <vehicle depart="5" id="veh178" route="route4" type="Car" />
  <vehicle depart="6" id="veh1414" route="route12" type="Car" />
  <vehicle depart="6" id="veh3580" route="route26" type="Car" />
  <vehicle depart="6" id="veh4122" route="route28" type="Car" />
  <vehicle depart="7" id="veh1745" route="route13" type="Car" />
  <vehicle depart="7" id="veh3604" route="route26" type="Car" />
  <vehicle depart="8" id="veh994" route="route7" type="Car" />
  <vehicle depart="11" id="veh2343" route="route15" type="Car" />
  <vehicle depart="12" id="veh1850" route="route13" type="Car" />
  <vehicle depart="12" id="veh2574" route="route15" type="Car" />
  <vehicle depart="14" id="veh4850" route="route30" type="Car" />
  <vehicle depart="15" id="veh3315" route="route26" type="Car" />
  <vehicle depart="16" id="veh3176" route="route25" type="Car" />
  <vehicle depart="16" id="veh4619" route="route30" type="Car" />
  <vehicle depart="17" id="veh840" route="route6" type="Car" />
  <vehicle depart="17" id="veh3001" route="route25" type="Car" />
  <vehicle depart="18" id="veh1100" route="route7" type="Car" />
  <vehicle depart="19" id="veh1966" route="route13" type="Car" />
  <vehicle depart="20" id="veh287" route="route4" type="Car" />
  <vehicle depart="21" id="veh276" route="route4" type="Car" />
  <vehicle depart="21" id="veh2610" route="route16" type="Car" />
  <vehicle depart="21" id="veh3768" route="route27" type="Car" />
  <vehicle depart="24" id="veh2971" route="route24" type="Car" />
  <vehicle depart="24" id="veh4788" route="route30" type="Car" />
  <vehicle depart="26" id="veh4862" route="route30" type="Car" />
  <vehicle depart="27" id="veh1206" route="route7" type="Car" />
  <vehicle depart="27" id="veh2731" route="route24" type="Car" />
  <vehicle depart="27" id="veh3903" route="route27" type="Car" />
  <vehicle depart="28" id="veh885" route="route6" type="Car" />
  <vehicle depart="28" id="veh4851" route="route30" type="Car" />
  <vehicle depart="29" id="veh780" route="route6" type="Car" />
  <vehicle depart="29" id="veh2025" route="route14" type="Car" />
  <vehicle depart="29" id="veh2318" route="route15" type="Car" />
  <vehicle depart="29" id="veh5327" route="route45" type="Car" />
  <vehicle depart="30" id="veh2945" route="route24" type="Car" />
  <vehicle depart="31" id="veh415" route="route5" type="Car" />
  <vehicle depart="31" id="veh868" route="route6" type="Car" />
  <vehicle depart="31" id="veh2862" route="route24" type="Car" />
  <vehicle depart="32" id="veh679" route="route6" type="Car" />
  <vehicle depart="33" id="veh3537" route="route26" type="Car" />
  <vehicle depart="34" id="veh3926" route="route27" type="Car" />
  <vehicle depart="34" id="veh4398" route="route29" type="Car" />
  <vehicle depart="34" id="veh4762" route="route30" type="Car" />
  <vehicle depart="34" id="veh5213" route="route31" type="Car" />
  <vehicle depart="35" id="veh5458" route="route62" type="Car" />
  <vehicle depart="36" id="veh672" route="route6" type="Car" />
  <vehicle depart="36" id="veh2617" route="route17" type="Car" />
  <vehicle depart="38" id="veh940" route="route6" type="Car" />
  <vehicle depart="38" id="veh3369" route="route26" type="Car" />
  <vehicle depart="39" id="veh2297" route="route15" type="Car" />
  <vehicle depart="39" id="veh4431" route="route29" type="Car" />
  <vehicle depart="40" id="veh448" route="route5" type="Car" />
  <vehicle depart="40" id="veh2827" route="route24" type="Car" />
  <vehicle depart="40" id="veh2931" route="route24" type="Car" />
  <vehicle depart="40" id="veh3964" route="route28" type="Car" />
  <vehicle depart="42" id="veh1762" route="route13" type="Car" />
  <vehicle depart="43" id="veh245" route="route4" type="Car" />
  <vehicle depart="43" id="veh339" route="route4" type="Car" />
  <vehicle depart="43" id="veh2085" route="route14" type="Car" />
  <vehicle depart="43" id="veh3597" route="route26" type="Car" />
  <vehicle depart="43" id="veh5477" route="route64" type="Car" />
  <vehicle depart="45" id="veh278" route="route4" type="Car" />
  <vehicle depart="45" id="veh1862" route="route13" type="Car" />
  <vehicle depart="45" id="veh2308" route="route15" type="Car" />
  <vehicle depart="47" id="veh637" route="route5" type="Car" />
  <vehicle depart="47" id="veh2419" route="route15" type="Car" />
  <vehicle depart="47" id="veh2977" route="route24" type="Car" />
  <vehicle depart="47" id="veh4465" route="route29" type="Car" />
  <vehicle depart="48" id="veh3771" route="route27" type="Car" />
  <vehicle depart="49" id="veh2087" route="route14" type="Car" />
  <vehicle depart="49" id="veh3066" route="route25" type="Car" />
  <vehicle depart="50" id="veh186" route="route4" type="Car" />
  <vehicle depart="50" id="veh4655" route="route30" type="Car" />
  <vehicle depart="52" id="veh3506" route="route26" type="Car" />
  <vehicle depart="53" id="veh286" route="route4" type="Car" />
  <vehicle depart="53" id="veh351" route="route5" type="Car" />
  <vehicle depart="53" id="veh4298" route="route29" type="Car" />
  <vehicle depart="55" id="veh698" route="route6" type="Car" />
  <vehicle depart="56" id="veh4797" route="route30" type="Car" />
  <vehicle depart="58" id="veh2692" route="route24" type="Car" />
  <vehicle depart="58" id="veh3802" route="route27" type="Car" />
  <vehicle depart="60" id="veh810" route="route6" type="Car" />
  <vehicle depart="60" id="veh3190" route="route25" type="Car" />
  <vehicle depart="61" id="veh1522" route="route12" type="Car" />
  <vehicle depart="61" id="veh1961" route="route13" type="Car" />
  <vehicle depart="61" id="veh2192" route="route14" type="Car" />
  <vehicle depart="61" id="veh4301" route="route29" type="Car" />
  <vehicle depart="61" id="veh5385" route="route53" type="Car" />
  <vehicle depart="62" id="veh7" route="route0" type="Car" />
  <vehicle depart="63" id="veh3828" route="route27" type="Car" />
  <vehicle depart="64" id="veh4777" route="route30" type="Car" />
  <vehicle depart="65" id="veh2354" route="route15" type="Car" />
  <vehicle depart="65" id="veh2652" route="route21" type="Car" />
  <vehicle depart="65" id="veh3363" route="route26" type="Car" />
  <vehicle depart="67" id="veh326" route="route4" type="Car" />
  <vehicle depart="67" id="veh2388" route="route15" type="Car" />
  <vehicle depart="67" id="veh3633" route="route27" type="Car" />
  <vehicle depart="70" id="veh5232" route="route34" type="Car" />
  <vehicle depart="71" id="veh2030" route="route14" type="Car" />
  <vehicle depart="72" id="veh2459" route="route15" type="Car" />
  <vehicle depart="75" id="veh1407" route="route12" type="Car" />
  <vehicle depart="75" id="veh1914" route="route13" type="Car" />
  <vehicle depart="77" id="veh1501" route="route12" type="Car" />
  <vehicle depart="77" id="veh1629" route="route12" type="Car" />
  <vehicle depart="78" id="veh1787" route="route13" type="Car" />
  <vehicle depart="79" id="veh2426" route="route15" type="Car" />
  <vehicle depart="81" id="veh2289" route="route14" type="Car" />
  <vehicle depart="81" id="veh3126" route="route25" type="Car" />
  <vehicle depart="83" id="veh4332" route="route29" type="Car" />
  <vehicle depart="84" id="veh713" route="route6" type="Car" />
  <vehicle depart="85" id="veh2292" route="route15" type="Car" />
  <vehicle depart="85" id="veh4697" route="route30" type="Car" />
  <vehicle depart="86" id="veh160" route="route4" type="Car" />
  <vehicle depart="87" id="veh4845" route="route30" type="Car" />
  <vehicle depart="88" id="veh929" route="route6" type="Car" />
  <vehicle depart="88" id="veh3013" route="route25" type="Car" />
  <vehicle depart="90" id="veh1220" route="route7" type="Car" />
  <vehicle depart="91" id="veh2125" route="route14" type="Car" />
  <vehicle depart="92" id="veh16" route="route2" type="Car" />
  <vehicle depart="92" id="veh1750" route="route13" type="Car" />
  <vehicle depart="92" id="veh1887" route="route13" type="Car" />
  <vehicle depart="92" id="veh5219" route="route32" type="Car" />
  <vehicle depart="92" id="veh5228" route="route33" type="Car" />
  <vehicle depart="93" id="veh266" route="route4" type="Car" />
  <vehicle depart="94" id="veh3225" route="route25" type="Car" />
  <vehicle depart="95" id="veh75" route="route4" type="Car" />
  <vehicle depart="95" id="veh2403" route="route15" type="Car" />
  <vehicle depart="96" id="veh988" route="route7" type="Car" />
  <vehicle depart="97" id="veh1065" route="route7" type="Car" />
  <vehicle depart="98" id="veh1910" route="route13" type="Car" />
  <vehicle depart="98" id="veh4373" route="route29" type="Car" />
  <vehicle depart="100" id="veh2978" route="route24" type="Car" />
  <vehicle depart="102" id="veh4281" route="route29" type="Car" />
  <vehicle depart="103" id="veh2608" route="route16" type="Car" />
  <vehicle depart="103" id="veh4353" route="route29" type="Car" />
  <vehicle depart="104" id="veh537" route="route5" type="Car" />
  <vehicle depart="104" id="veh5363" route="route50" type="Car" />
  <vehicle depart="105" id="veh761" route="route6" type="Car" />
  <vehicle depart="106" id="veh1199" route="route7" type="Car" />
  <vehicle depart="106" id="veh3930" route="route27" type="Car" />
  <vehicle depart="106" id="veh4218" route="route28" type="Car" />
  <vehicle depart="107" id="veh1565" route="route12" type="Car" />
  <vehicle depart="107" id="veh2141" route="route14" type="Car" />
  <vehicle depart="108" id="veh1212" route="route7" type="Car" />
  <vehicle depart="108" id="veh3692" route="route27" type="Car" />
  <vehicle depart="109" id="veh83" route="route4" type="Car" />
  <vehicle depart="109" id="veh813" route="route6" type="Car" />
  <vehicle depart="109" id="veh2022" route="route14" type="Car" />
  <vehicle depart="109" id="veh2643" route="route20" type="Car" />
  <vehicle depart="109" id="veh2798" route="route24" type="Car" />
  <vehicle depart="109" id="veh4910" route="route31" type="Car" />
  <vehicle depart="110" id="veh1004" route="route7" type="Car" />
  <vehicle depart="111" id="veh1332" route="route11" type="Car" />
  <vehicle depart="111" id="veh2436" route="route15" type="Car" />
  <vehicle depart="111" id="veh2867" route="route24" type="Car" />
  <vehicle depart="111" id="veh4914" route="route31" type="Car" />
  <vehicle depart="112" id="veh2816" route="route24" type="Car" />
  <vehicle depart="112" id="veh4673" route="route30" type="Car" />
  <vehicle depart="113" id="veh4446" route="route29" type="Car" />
  <vehicle depart="114" id="veh1935" route="route13" type="Car" />
  <vehicle depart="115" id="veh2683" route="route24" type="Car" />
  <vehicle depart="116" id="veh877" route="route6" type="Car" />
  <vehicle depart="116" id="veh5388" route="route53" type="Car" />
  <vehicle depart="118" id="veh5199" route="route31" type="Car" />
  <vehicle depart="121" id="veh2227" route="route14" type="Car" />
  <vehicle depart="122" id="veh4631" route="route30" type="Car" />
  <vehicle depart="123" id="veh657" route="route5" type="Car" />
  <vehicle depart="123" id="veh2684" route="route24" type="Car" />
  <vehicle depart="123" id="veh3270" route="route25" type="Car" />
  <vehicle depart="124" id="veh2753" route="route24" type="Car" />
  <vehicle depart="124" id="veh4154" route="route28" type="Car" />
  <vehicle depart="124" id="veh4219" route="route28" type="Car" />
  <vehicle depart="124" id="veh4623" route="route30" type="Car" />
  <vehicle depart="124" id="veh5040" route="route31" type="Car" />
  <vehicle depart="125" id="veh1288" route="route7" type="Car" />
  <vehicle depart="126" id="veh958" route="route6" type="Car" />
  <vehicle depart="127" id="veh3143" route="route25" type="Car" />
  <vehicle depart="127" id="veh4396" route="route29" type="Car" />
  <vehicle depart="128" id="veh1131" route="route7" type="Car" />
  <vehicle depart="129" id="veh4522" route="route29" type="Car" />
  <vehicle depart="130" id="veh2580" route="route15" type="Car" />
  <vehicle depart="130" id="veh2687" route="route24" type="Car" />
  <vehicle depart="130" id="veh4796" route="route30" type="Car" />
  <vehicle depart="132" id="veh4426" route="route29" type="Car" />
  <vehicle depart="133" id="veh2223" route="route14" type="Car" />
  <vehicle depart="134" id="veh1616" route="route12" type="Car" />
  <vehicle depart="134" id="veh3778" route="route27" type="Car" />
  <vehicle depart="134" id="veh4922" route="route31" type="Car" />
  <vehicle depart="135" id="veh1192" route="route7" type="Car" />
  <vehicle depart="136" id="veh723" route="route6" type="Car" />
  <vehicle depart="136" id="veh907" route="route6" type="Car" />
  <vehicle depart="136" id="veh1728" route="route13" type="Car" />
  <vehicle depart="137" id="veh2057" route="route14" type="Car" />
  <vehicle depart="138" id="veh1026" route="route7" type="Car" />
  <vehicle depart="139" id="veh762" route="route6" type="Car" />
  <vehicle depart="139" id="veh1547" route="route12" type="Car" />
  <vehicle depart="139" id="veh4368" route="route29" type="Car" />
  <vehicle depart="140" id="veh3499" route="route26" type="Car" />
  <vehicle depart="141" id="veh5166" route="route31" type="Car" />
  <vehicle depart="142" id="veh1940" route="route13" type="Car" />
  <vehicle depart="142" id="veh4976" route="route31" type="Car" />
  <vehicle depart="143" id="veh2024" route="route14" type="Car" />
  <vehicle depart="144" id="veh904" route="route6" type="Car" />
  <vehicle depart="145" id="veh1383" route="route12" type="Car" />
  <vehicle depart="145" id="veh5460" route="route62" type="Car" />
  <vehicle depart="147" id="veh972" route="route6" type="Car" />
  <vehicle depart="148" id="veh269" route="route4" type="Car" />
  <vehicle depart="148" id="veh1824" route="route13" type="Car" />
  <vehicle depart="149" id="veh5368" route="route51" type="Car" />
  <vehicle depart="150" id="veh2209" route="route14" type="Car" />
  <vehicle depart="150" id="veh3860" route="route27" type="Car" />
  <vehicle depart="151" id="veh1122" route="route7" type="Car" />
  <vehicle depart="151" id="veh4820" route="route30" type="Car" />
  <vehicle depart="151" id="veh5044" route="route31" type="Car" />
  <vehicle depart="152" id="veh1532" route="route12" type="Car" />
  <vehicle depart="152" id="veh3329" route="route26" type="Car" />
  <vehicle depart="152" id="veh3350" route="route26" type="Car" />
  <vehicle depart="152" id="veh4273" route="route29" type="Car" />
  <vehicle depart="153" id="veh749" route="route6" type="Car" />
  <vehicle depart="153" id="veh2868" route="route24" type="Car" />
  <vehicle depart="153" id="veh3342" route="route26" type="Car" />
  <vehicle depart="154" id="veh228" route="route4" type="Car" />
  <vehicle depart="154" id="veh5216" route="route32" type="Car" />
  <vehicle depart="155" id="veh3365" route="route26" type="Car" />
  <vehicle depart="156" id="veh4275" route="route29" type="Car" />
  <vehicle depart="156" id="veh4986" route="route31" type="Car" />
  <vehicle depart="157" id="veh2980" route="route24" type="Car" />
  <vehicle depart="158" id="veh5165" route="route31" type="Car" />
  <vehicle depart="159" id="veh5245" route="route35" type="Car" />
  <vehicle depart="160" id="veh1321" route="route10" type="Car" />
  <vehicle depart="160" id="veh4387" route="route29" type="Car" />
  <vehicle depart="161" id="veh3354" route="route26" type="Car" />
  <vehicle depart="161" id="veh4220" route="route28" type="Car" />
  <vehicle depart="162" id="veh220" route="route4" type="Car" />
  <vehicle depart="162" id="veh2063" route="route14" type="Car" />
  <vehicle depart="163" id="veh59" route="route4" type="Car" />
  <vehicle depart="163" id="veh4918" route="route31" type="Car" />
  <vehicle depart="164" id="veh5257" route="route37" type="Car" />
  <vehicle depart="165" id="veh1478" route="route12" type="Car" />
  <vehicle depart="165" id="veh3340" route="route26" type="Car" />
  <vehicle depart="165" id="veh4908" route="route31" type="Car" />
  <vehicle depart="166" id="veh2425" route="route15" type="Car" />
  <vehicle depart="166" id="veh3141" route="route25" type="Car" />
  <vehicle depart="167" id="veh4553" route="route29" type="Car" />
  <vehicle depart="168" id="veh1487" route="route12" type="Car" />
  <vehicle depart="168" id="veh2613" route="route16" type="Car" />
  <vehicle depart="168" id="veh3552" route="route26" type="Car" />
  <vehicle depart="168" id="veh4567" route="route29" type="Car" />
  <vehicle depart="169" id="veh3434" route="route26" type="Car" />
  <vehicle depart="169" id="veh4924" route="route31" type="Car" />
  <vehicle depart="170" id="veh4239" route="route28" type="Car" />
  <vehicle depart="170" id="veh4952" route="route31" type="Car" />
  <vehicle depart="171" id="veh1198" route="route7" type="Car" />
  <vehicle depart="171" id="veh2144" route="route14" type="Car" />
  <vehicle depart="171" id="veh5290" route="route41" type="Car" />
  <vehicle depart="174" id="veh1103" route="route7" type="Car" />
  <vehicle depart="174" id="veh1576" route="route12" type="Car" />
  <vehicle depart="174" id="veh1829" route="route13" type="Car" />
  <vehicle depart="174" id="veh2579" route="route15" type="Car" />
  <vehicle depart="174" id="veh2638" route="route19" type="Car" />
  <vehicle depart="174" id="veh4024" route="route28" type="Car" />
  <vehicle depart="175" id="veh349" route="route4" type="Car" />
  <vehicle depart="175" id="veh1459" route="route12" type="Car" />
  <vehicle depart="175" id="veh4422" route="route29" type="Car" />
  <vehicle depart="175" id="veh5403" route="route55" type="Car" />
  <vehicle depart="176" id="veh4260" route="route28" type="Car" />
  <vehicle depart="178" id="veh3331" route="route26" type="Car" />
  <vehicle depart="178" id="veh5118" route="route31" type="Car" />
  <vehicle depart="179" id="veh1036" route="route7" type="Car" />
  <vehicle depart="181" id="veh37" route="route4" type="Car" />
  <vehicle depart="181" id="veh1230" route="route7" type="Car" />
  <vehicle depart="182" id="veh4727" route="route30" type="Car" />
  <vehicle depart="183" id="veh1484" route="route12" type="Car" />
  <vehicle depart="183" id="veh4904" route="route31" type="Car" />
  <vehicle depart="184" id="veh2234" route="route14" type="Car" />
  <vehicle depart="184" id="veh3377" route="route26" type="Car" />
  <vehicle depart="184" id="veh4086" route="route28" type="Car" />
  <vehicle depart="185" id="veh306" route="route4" type="Car" />
  <vehicle depart="186" id="veh4359" route="route29" type="Car" />
  <vehicle depart="186" id="veh4844" route="route30" type="Car" />
  <vehicle depart="187" id="veh3630" route="route27" type="Car" />
  <vehicle depart="189" id="veh3333" route="route26" type="Car" />
  <vehicle depart="189" id="veh3487" route="route26" type="Car" />
  <vehicle depart="190" id="veh502" route="route5" type="Car" />
  <vehicle depart="191" id="veh1798" route="route13" type="Car" />
  <vehicle depart="191" id="veh2044" route="route14" type="Car" />
  <vehicle depart="191" id="veh3972" route="route28" type="Car" />
  <vehicle depart="191" id="veh4338" route="route29" type="Car" />
  <vehicle depart="191" id="veh5260" route="route37" type="Car" />
  <vehicle depart="192" id="veh4525" route="route29" type="Car" />
  <vehicle depart="193" id="veh1963" route="route13" type="Car" />
  <vehicle depart="193" id="veh4167" route="route28" type="Car" />
  <vehicle depart="194" id="veh2674" route="route24" type="Car" />
  <vehicle depart="195" id="veh1586" route="route12" type="Car" />
  <vehicle depart="195" id="veh5150" route="route31" type="Car" />
  <vehicle depart="196" id="veh1502" route="route12" type="Car" />
  <vehicle depart="197" id="veh38" route="route4" type="Car" />
  <vehicle depart="197" id="veh1054" route="route7" type="Car" />
  <vehicle depart="197" id="veh2625" route="route18" type="Car" />
  <vehicle depart="197" id="veh3261" route="route25" type="Car" />
  <vehicle depart="198" id="veh674" route="route6" type="Car" />
  <vehicle depart="198" id="veh1077" route="route7" type="Car" />
  <vehicle depart="198" id="veh2410" route="route15" type="Car" />
  <vehicle depart="199" id="veh787" route="route6" type="Car" />
  <vehicle depart="199" id="veh999" route="route7" type="Car" />
  <vehicle depart="199" id="veh1912" route="route13" type="Car" />
  <vehicle depart="199" id="veh3026" route="route25" type="Car" />
  <vehicle depart="201" id="veh1878" route="route13" type="Car" />
  <vehicle depart="202" id="veh4271" route="route29" type="Car" />
  <vehicle depart="204" id="veh732" route="route6" type="Car" />
  <vehicle depart="206" id="veh199" route="route4" type="Car" />
  <vehicle depart="208" id="veh1834" route="route13" type="Car" />
  <vehicle depart="208" id="veh5387" route="route53" type="Car" />
  <vehicle depart="209" id="veh2185" route="route14" type="Car" />
  <vehicle depart="210" id="veh4838" route="route30" type="Car" />
  <vehicle depart="211" id="veh2090" route="route14" type="Car" />
  <vehicle depart="211" id="veh3655" route="route27" type="Car" />
  <vehicle depart="212" id="veh2362" route="route15" type="Car" />
  <vehicle depart="213" id="veh1304" route="route8" type="Car" />
  <vehicle depart="213" id="veh2350" route="route15" type="Car" />
  <vehicle depart="214" id="veh4900" route="route31" type="Car" />
  <vehicle depart="215" id="veh1359" route="route12" type="Car" />
  <vehicle depart="215" id="veh2219" route="route14" type="Car" />
  <vehicle depart="216" id="veh1030" route="route7" type="Car" />
  <vehicle depart="218" id="veh2389" route="route15" type="Car" />
  <vehicle depart="218" id="veh5317" route="route44" type="Car" />
  <vehicle depart="219" id="veh1330" route="route11" type="Car" />
  <vehicle depart="221" id="veh2745" route="route24" type="Car" />
  <vehicle depart="221" id="veh5362" route="route50" type="Car" />
  <vehicle depart="222" id="veh2781" route="route24" type="Car" />
  <vehicle depart="222" id="veh4974" route="route31" type="Car" />
  <vehicle depart="223" id="veh1733" route="route13" type="Car" />
  <vehicle depart="223" id="veh2101" route="route14" type="Car" />
  <vehicle depart="223" id="veh2712" route="route24" type="Car" />
  <vehicle depart="223" id="veh5048" route="route31" type="Car" />
  <vehicle depart="223" id="veh5121" route="route31" type="Car" />
  <vehicle depart="225" id="veh4215" route="route28" type="Car" />
  <vehicle depart="226" id="veh1296" route="route7" type="Car" />
  <vehicle depart="226" id="veh4409" route="route29" type="Car" />
  <vehicle depart="227" id="veh139" route="route4" type="Car" />
  <vehicle depart="227" id="veh3252" route="route25" type="Car" />
  <vehicle depart="228" id="veh2169" route="route14" type="Car" />
  <vehicle depart="229" id="veh2878" route="route24" type="Car" />
  <vehicle depart="229" id="veh4385" route="route29" type="Car" />
  <vehicle depart="230" id="veh406" route="route5" type="Car" />
  <vehicle depart="230" id="veh2782" route="route24" type="Car" />
  <vehicle depart="231" id="veh4737" route="route30" type="Car" />
  <vehicle depart="231" id="veh5101" route="route31" type="Car" />
  <vehicle depart="232" id="veh909" route="route6" type="Car" />
  <vehicle depart="233" id="veh2104" route="route14" type="Car" />
  <vehicle depart="233" id="veh2882" route="route24" type="Car" />
  <vehicle depart="234" id="veh2554" route="route15" type="Car" />
  <vehicle depart="236" id="veh5075" route="route31" type="Car" />
  <vehicle depart="238" id="veh3044" route="route25" type="Car" />
  <vehicle depart="239" id="veh1840" route="route13" type="Car" />
  <vehicle depart="240" id="veh4583" route="route30" type="Car" />
  <vehicle depart="242" id="veh419" route="route5" type="Car" />
  <vehicle depart="242" id="veh4051" route="route28" type="Car" />
  <vehicle depart="243" id="veh4751" route="route30" type="Car" />
  <vehicle depart="243" id="veh4884" route="route30" type="Car" />
  <vehicle depart="245" id="veh155" route="route4" type="Car" />
  <vehicle depart="245" id="veh3561" route="route26" type="Car" />
  <vehicle depart="245" id="veh4535" route="route29" type="Car" />
  <vehicle depart="246" id="veh5186" route="route31" type="Car" />
  <vehicle depart="247" id="veh5154" route="route31" type="Car" />
  <vehicle depart="248" id="veh3811" route="route27" type="Car" />
  <vehicle depart="248" id="veh4291" route="route29" type="Car" />
  <vehicle depart="249" id="veh4646" route="route30" type="Car" />
  <vehicle depart="250" id="veh3739" route="route27" type="Car" />