<?xml version='1.0' encoding='utf-8'?>
<routes>
  <vType accel="1.0" decel="5.0" id="Car" length="2.0" maxSpeed="70.0" sigma="0.0" />
  <route id="route0" edges="0_0i 0_1o r1_0_1 1_0i 1_3o" />
  <route id="route1" edges="0_0i 0_1o r1_0_1 1_0i 1_2o r2_1_2 2_0i 2_2o" />
  <route id="route2" edges="0_0i 0_1o r1_0_1 1_0i 1_1o r5_1_4 4_3i 4_0o" />
  <route id="route3" edges="0_0i 0_1o r1_0_1 1_0i 1_1o r5_1_4 4_3i 4_1o" />
  <route id="route4" edges="0_0i 0_1o r1_0_1 1_0i 1_1o r5_1_4 4_3i 4_2o r4_4_3 3_0i 3_1o" />
  <route id="route5" edges="0_0i 0_1o r1_0_1 1_0i 1_2o r2_1_2 2_0i 2_1o r3_2_3 3_3i 3_1o" />
  <route id="route6" edges="0_0i 0_1o r1_0_1 1_0i 1_1o r5_1_4 4_3i 4_2o r4_4_3 3_0i 3_2o" />
  <route id="route7" edges="0_0i 0_1o r1_0_1 1_0i 1_2o r2_1_2 2_0i 2_1o r3_2_3 3_3i 3_2o" />
  <route id="route8" edges="0_2i 0_1o r1_0_1 1_0i 1_3o" />
  <route id="route9" edges="0_2i 0_1o r1_0_1 1_0i 1_2o r2_1_2 2_0i 2_2o" />
  <route id="route10" edges="0_2i 0_1o r1_0_1 1_0i 1_1o r5_1_4 4_3i 4_0o" />
  <route id="route11" edges="0_2i 0_1o r1_0_1 1_0i 1_1o r5_1_4 4_3i 4_1o" />
  <route id="route12" edges="0_2i 0_1o r1_0_1 1_0i 1_1o r5_1_4 4_3i 4_2o r4_4_3 3_0i 3_1o" />
  <route id="route13" edges="0_2i 0_1o r1_0_1 1_0i 1_2o r2_1_2 2_0i 2_1o r3_2_3 3_3i 3_1o" />
  <route id="route14" edges="0_2i 0_1o r1_0_1 1_0i 1_1o r5_1_4 4_3i 4_2o r4_4_3 3_0i 3_2o" />
  <route id="route15" edges="0_2i 0_1o r1_0_1 1_0i 1_2o r2_1_2 2_0i 2_1o r3_2_3 3_3i 3_2o" />
  <route id="route16" edges="1_3i 1_0o r1_1_0 0_1i 0_0o" />
  <route id="route17" edges="1_3i 1_0o r1_1_0 0_1i 0_2o" />
  <route id="route18" edges="2_2i 2_0o r2_2_1 1_2i 1_0o r1_1_0 0_1i 0_0o" />
  <route id="route19" edges="2_2i 2_0o r2_2_1 1_2i 1_0o r1_1_0 0_1i 0_2o" />
  <route id="route20" edges="4_0i 4_3o r5_4_1 1_1i 1_0o r1_1_0 0_1i 0_0o" />
  <route id="route21" edges="4_0i 4_3o r5_4_1 1_1i 1_0o r1_1_0 0_1i 0_2o" />
  <route id="route22" edges="4_1i 4_3o r5_4_1 1_1i 1_0o r1_1_0 0_1i 0_0o" />
  <route id="route23" edges="4_1i 4_3o r5_4_1 1_1i 1_0o r1_1_0 0_1i 0_2o" />
  <route id="route24" edges="3_1i 3_0o r4_3_4 4_2i 4_3o r5_4_1 1_1i 1_0o r1_1_0 0_1i 0_0o" />
  <route id="route25" edges="3_1i 3_3o r3_3_2 2_1i 2_0o r2_2_1 1_2i 1_0o r1_1_0 0_1i 0_0o" />
  <route id="route26" edges="3_1i 3_0o r4_3_4 4_2i 4_3o r5_4_1 1_1i 1_0o r1_1_0 0_1i 0_2o" />
  <route id="route27" edges="3_1i 3_3o r3_3_2 2_1i 2_0o r2_2_1 1_2i 1_0o r1_1_0 0_1i 0_2o" />
  <route id="route28" edges="3_2i 3_0o r4_3_4 4_2i 4_3o r5_4_1 1_1i 1_0o r1_1_0 0_1i 0_0o" />
  <route id="route29" edges="3_2i 3_3o r3_3_2 2_1i 2_0o r2_2_1 1_2i 1_0o r1_1_0 0_1i 0_0o" />
  <route id="route30" edges="3_2i 3_0o r4_3_4 4_2i 4_3o r5_4_1 1_1i 1_0o r1_1_0 0_1i 0_2o" />
  <route id="route31" edges="3_2i 3_3o r3_3_2 2_1i 2_0o r2_2_1 1_2i 1_0o r1_1_0 0_1i 0_2o" />
  <route id="route32" edges="1_3i 1_2o r2_1_2 2_0i 2_2o" />
  <route id="route33" edges="1_3i 1_2o r2_1_2 2_0i 2_1o r3_2_3 3_3i 3_1o" />
  <route id="route34" edges="1_3i 1_2o r2_1_2 2_0i 2_1o r3_2_3 3_3i 3_2o" />
  <route id="route35" edges="4_0i 4_3o r5_4_1 1_1i 1_2o r2_1_2 2_0i 2_2o" />
  <route id="route36" edges="4_1i 4_3o r5_4_1 1_1i 1_2o r2_1_2 2_0i 2_2o" />
  <route id="route37" edges="2_2i 2_0o r2_2_1 1_2i 1_3o" />
  <route id="route38" edges="2_2i 2_0o r2_2_1 1_2i 1_1o r5_1_4 4_3i 4_0o" />
  <route id="route39" edges="2_2i 2_0o r2_2_1 1_2i 1_1o r5_1_4 4_3i 4_1o" />
  <route id="route40" edges="3_1i 3_3o r3_3_2 2_1i 2_0o r2_2_1 1_2i 1_3o" />
  <route id="route41" edges="3_2i 3_3o r3_3_2 2_1i 2_0o r2_2_1 1_2i 1_3o" />
  <route id="route42" edges="2_2i 2_1o r3_2_3 3_3i 3_0o r4_3_4 4_2i 4_0o" />
  <route id="route43" edges="2_2i 2_1o r3_2_3 3_3i 3_0o r4_3_4 4_2i 4_1o" />
  <route id="route44" edges="2_2i 2_1o r3_2_3 3_3i 3_1o" />
  <route id="route45" edges="2_2i 2_1o r3_2_3 3_3i 3_2o" />
  <route id="route46" edges="4_0i 4_2o r4_4_3 3_0i 3_3o r3_3_2 2_1i 2_2o" />
  <route id="route47" edges="4_1i 4_2o r4_4_3 3_0i 3_3o r3_3_2 2_1i 2_2o" />
  <route id="route48" edges="3_1i 3_3o r3_3_2 2_1i 2_2o" />
  <route id="route49" edges="3_2i 3_3o r3_3_2 2_1i 2_2o" />
  <route id="route50" edges="3_1i 3_0o r4_3_4 4_2i 4_3o r5_4_1 1_1i 1_3o" />
  <route id="route51" edges="3_1i 3_0o r4_3_4 4_2i 4_0o" />
  <route id="route52" edges="3_1i 3_0o r4_3_4 4_2i 4_1o" />
  <route id="route53" edges="3_2i 3_0o r4_3_4 4_2i 4_3o r5_4_1 1_1i 1_3o" />
  <route id="route54" edges="3_2i 3_0o r4_3_4 4_2i 4_0o" />
  <route id="route55" edges="3_2i 3_0o r4_3_4 4_2i 4_1o" />
  <route id="route56" edges="1_3i 1_1o r5_1_4 4_3i 4_2o r4_4_3 3_0i 3_1o" />
  <route id="route57" edges="1_3i 1_1o r5_1_4 4_3i 4_2o r4_4_3 3_0i 3_2o" />
  <route id="route58" edges="4_0i 4_2o r4_4_3 3_0i 3_1o" />
  <route id="route59" edges="4_0i 4_2o r4_4_3 3_0i 3_2o" />
  <route id="route60" edges="4_1i 4_2o r4_4_3 3_0i 3_1o" />
  <route id="route61" edges="4_1i 4_2o r4_4_3 3_0i 3_2o" />
  <route id="route62" edges="4_0i 4_3o r5_4_1 1_1i 1_3o" />
  <route id="route63" edges="4_1i 4_3o r5_4_1 1_1i 1_3o" />
  <route id="route64" edges="1_3i 1_1o r5_1_4 4_3i 4_0o" />
  <route id="route65" edges="1_3i 1_1o r5_1_4 4_3i 4_1o" />
  <vehicle depart="0" id="veh3151" route="route26" type="Car" />
  <vehicle depart="2" id="veh764" route="route6" type="Car" />
  <vehicle depart="3" id="veh394" route="route5" type="Car" />
  <vehicle depart="3" id="veh4529" route="route31" type="Car" />
  <vehicle depart="4" id="veh322" route="route5" type="Car" />
  <vehicle depart="4" id="veh1743" route="route13" type="Car" />
  <vehicle depart="5" id="veh3061" route="route26" type="Car" />
  <vehicle depart="6" id="veh1655" route="route13" type="Car" />
  <vehicle depart="6" id="veh3316" route="route27" type="Car" />
  <vehicle depart="7" id="veh2155" route="route15" type="Car" />
  <vehicle depart="7" id="veh2342" route="route15" type="Car" />
  <vehicle depart="7" id="veh4597" route="route31" type="Car" />
  <vehicle depart="10" id="veh607" route="route6" type="Car" />
  <vehicle depart="10" id="veh1515" route="route13" type="Car" />
  <vehicle depart="10" id="veh2916" route="route25" type="Car" />
  <vehicle depart="12" id="veh4418" route="route30" type="Car" />
  <vehicle depart="13" id="veh185" route="route4" type="Car" />
  <vehicle depart="14" id="veh2282" route="route15" type="Car" />
  <vehicle depart="14" id="veh2305" route="route15" type="Car" />
  <vehicle depart="15" id="veh2944" route="route25" type="Car" />
  <vehicle depart="16" id="veh3030" route="route26" type="Car" />
  <vehicle depart="17" id="veh3206" route="route26" type="Car" />
  <vehicle depart="18" id="veh390" route="route5" type="Car" />
  <vehicle depart="18" id="veh2569" route="route24" type="Car" />
  <vehicle depart="19" id="veh1634" route="route13" type="Car" />
  <vehicle depart="19" id="veh1949" route="route14" type="Car" />
  <vehicle depart="20" id="veh2747" route="route25" type="Car" />
  <vehicle depart="20" id="veh2926" route="route25" type="Car" />
  <vehicle depart="20" id="veh3387" route="route27" type="Car" />
  <vehicle depart="22" id="veh1230" route="route12" type="Car" />
  <vehicle depart="23" id="veh963" route="route7" type="Car" />
  <vehicle depart="23" id="veh1382" route="route12" type="Car" />
  <vehicle depart="24" id="veh4354" route="route30" type="Car" />
  <vehicle depart="25" id="veh2075" route="route14" type="Car" />
  <vehicle depart="27" id="veh1807" route="route14" type="Car" />
  <vehicle depart="28" id="veh1932" route="route14" type="Car" />
  <vehicle depart="29" id="veh2278" route="route15" type="Car" />
  <vehicle depart="29" id="veh3419" route="route27" type="Car" />
  <vehicle depart="30" id="veh4760" route="route31" type="Car" />
  <vehicle depart="33" id="veh3095" route="route26" type="Car" />
  <vehicle depart="34" id="veh1619" route="route13" type="Car" />
  <vehicle depart="36" id="veh1217" route="route12" type="Car" />
  <vehicle depart="36" id="veh3058" route="route26" type="Car" />
  <vehicle depart="37" id="veh398" route="route5" type="Car" />
  <vehicle depart="37" id="veh499" route="route5" type="Car" />
  <vehicle depart="38" id="veh1697" route="route13" type="Car" />
  <vehicle depart="38" id="veh4387" route="route30" type="Car" />
  <vehicle depart="39" id="veh1855" route="route14" type="Car" />
  <vehicle depart="41" id="veh4476" route="route30" type="Car" />
  <vehicle depart="42" id="veh1069" route="route7" type="Car" />
  <vehicle depart="43" id="veh2527" route="route24" type="Car" />
  <vehicle depart="43" id="veh3887" route="route28" type="Car" />
  <vehicle depart="43" id="veh3888" route="route28" type="Car" />
  <vehicle depart="46" id="veh1317" route="route12" type="Car" />
  <vehicle depart="46" id="veh2905" route="route25" type="Car" />
  <vehicle depart="47" id="veh153" route="route4" type="Car" />
  <vehicle depart="48" id="veh3290" route="route26" type="Car" />
  <vehicle depart="48" id="veh3340" route="route27" type="Car" />
  <vehicle depart="51" id="veh837" route="route6" type="Car" />
  <vehicle depart="52" id="veh4663" route="route31" type="Car" />
  <vehicle depart="54" id="veh2379" route="route15" type="Car" />
  <vehicle depart="55" id="veh268" route="route4" type="Car" />
  <vehicle depart="55" id="veh787" route="route6" type="Car" />
  <vehicle depart="55" id="veh2866" route="route25" type="Car" />
  <vehicle depart="55" id="veh3707" route="route28" type="Car" />
  <vehicle depart="56" id="veh1288" route="route12" type="Car" />
  <vehicle depart="56" id="veh3401" route="route27" type="Car" />
  <vehicle depart="56" id="veh4486" route="route30" type="Car" />
  <vehicle depart="57" id="veh1639" route="route13" type="Car" />
  <vehicle depart="57" id="veh4536" route="route31" type="Car" />
  <vehicle depart="60" id="veh1957" route="route14" type="Car" />
  <vehicle depart="60" id="veh2910" route="route25" type="Car" />
  <vehicle depart="62" id="veh1827" route="route14" type="Car" />
  <vehicle depart="63" id="veh1283" route="route12" type="Car" />
  <vehicle depart="64" id="veh1775" route="route13" type="Car" />
  <vehicle depart="64" id="veh3292" route="route26" type="Car" />
  <vehicle depart="64" id="veh4270" route="route30" type="Car" />
  <vehicle depart="65" id="veh3492" route="route27" type="Car" />
  <vehicle depart="66" id="veh3276" route="route26" type="Car" />
  <vehicle depart="66" id="veh3563" route="route27" type="Car" />
  <vehicle depart="68" id="veh4307" route="route30" type="Car" />
  <vehicle depart="69" id="veh1701" route="route13" type="Car" />
  <vehicle depart="70" id="veh3251" route="route26" type="Car" />
  <vehicle depart="70" id="veh3267" route="route26" type="Car" />
  <vehicle depart="70" id="veh3710" route="route28" type="Car" />
  <vehicle depart="71" id="veh3103" route="route26" type="Car" />
  <vehicle depart="73" id="veh386" route="route5" type="Car" />
  <vehicle depart="73" id="veh2544" route="route24" type="Car" />
  <vehicle depart="74" id="veh792" route="route6" type="Car" />
  <vehicle depart="74" id="veh3473" route="route27" type="Car" />
  <vehicle depart="75" id="veh1640" route="route13" type="Car" />
  <vehicle depart="75" id="veh3064" route="route26" type="Car" />
  <vehicle depart="75" id="veh3528" route="route27" type="Car" />
  <vehicle depart="75" id="veh4356" route="route30" type="Car" />
  <vehicle depart="75" id="veh4401" route="route30" type="Car" />
  <vehicle depart="76" id="veh279" route="route4" type="Car" />
  <vehicle depart="76" id="veh2511" route="route24" type="Car" />
  <vehicle depart="77" id="veh3527" route="route27" type="Car" />
  <vehicle depart="77" id="veh3850" route="route28" type="Car" />
  <vehicle depart="78" id="veh4456" route="route30" type="Car" />
  <vehicle depart="80" id="veh3112" route="route26" type="Car" />
  <vehicle depart="82" id="veh1157" route="route7" type="Car" />
  <vehicle depart="83" id="veh3720" route="route28" type="Car" />
  <vehicle depart="84" id="veh1073" route="route7" type="Car" />
  <vehicle depart="84" id="veh4332" route="route30" type="Car" />
  <vehicle depart="84" id="veh4729" route="route31" type="Car" />
  <vehicle depart="85" id="veh2016" route="route14" type="Car" />
  <vehicle depart="85" id="veh2450" route="route24" type="Car" />
  <vehicle depart="87" id="veh1924" route="route14" type="Car" />
  <vehicle depart="87" id="veh2246" route="route15" type="Car" />
  <vehicle depart="88" id="veh462" route="route5" type="Car" />
  <vehicle depart="88" id="veh859" route="route6" type="Car" />
  <vehicle depart="88" id="veh2148" route="route15" type="Car" />
  <vehicle depart="88" id="veh3476" route="route27" type="Car" />
  <vehicle depart="88" id="veh4004" route="route29" type="Car" />
  <vehicle depart="89" id="veh24" route="route4" type="Car" />
  <vehicle depart="89" id="veh392" route="route5" type="Car" />
  <vehicle depart="90" id="veh4225" route="route30" type="Car" />
  <vehicle depart="92" id="veh332" route="route5" type="Car" />
  <vehicle depart="92" id="veh1031" route="route7" type="Car" />
  <vehicle depart="92" id="veh4386" route="route30" type="Car" />
  <vehicle depart="93" id="veh1290" route="route12" type="Car" />
  <vehicle depart="93" id="veh2186" route="route15" type="Car" />
  <vehicle depart="94" id="veh318" route="route5" type="Car" />
  <vehicle depart="94" id="veh476" route="route5" type="Car" />
  <vehicle depart="95" id="veh99" route="route4" type="Car" />
  <vehicle depart="96" id="veh4756" route="route31" type="Car" />
  <vehicle depart="98" id="veh1654" route="route13" type="Car" />
  <vehicle depart="98" id="veh2617" route="route24" type="Car" />
  <vehicle depart="98" id="veh4772" route="route31" type="Car" />
  <vehicle depart="99" id="veh1875" route="route14" type="Car" />
  <vehicle depart="100" id="veh2777" route="route25" type="Car" />
  <vehicle depart="100" id="veh3754" route="route28" type="Car" />
  <vehicle depart="100" id="veh4217" route="route30" type="Car" />
  <vehicle depart="101" id="veh363" route="route5" type="Car" />
  <vehicle depart="101" id="veh832" route="route6" type="Car" />
  <vehicle depart="102" id="veh1166" route="route7" type="Car" />
  <vehicle depart="102" id="veh2720" route="route25" type="Car" />
  <vehicle depart="104" id="veh1249" route="route12" type="Car" />
  <vehicle depart="105" id="veh2045" route="route14" type="Car" />
  <vehicle depart="105" id="veh4345" route="route30" type="Car" />
  <vehicle depart="106" id="veh4402" route="route30" type="Car" />
  <vehicle depart="108" id="veh226" route="route4" type="Car" />
  <vehicle depart="108" id="veh902" route="route7" type="Car" />
  <vehicle depart="108" id="veh2137" route="route15" type="Car" />
  <vehicle depart="108" id="veh3826" route="route28" type="Car" />
  <vehicle depart="108" id="veh4131" route="route29" type="Car" />
  <vehicle depart="109" id="veh1074" route="route7" type="Car" />
  <vehicle depart="110" id="veh3235" route="route26" type="Car" />
  <vehicle depart="111" id="veh3656" route="route28" type="Car" />
  <vehicle depart="113" id="veh897" route="route6" type="Car" />
  <vehicle depart="113" id="veh3669" route="route28" type="Car" />
  <vehicle depart="114" id="veh3019" route="route26" type="Car" />
  <vehicle depart="115" id="veh3417" route="route27" type="Car" />
  <vehicle depart="117" id="veh4102" route="route29" type="Car" />
  <vehicle depart="118" id="veh433" route="route5" type="Car" />
  <vehicle depart="118" id="veh1593" route="route13" type="Car" />
  <vehicle depart="118" id="veh2029" route="route14" type="Car" />
  <vehicle depart="118" id="veh2528" route="route24" type="Car" />
  <vehicle depart="119" id="veh6" route="route4" type="Car" />
  <vehicle depart="119" id="veh642" route="route6" type="Car" />
  <vehicle depart="121" id="veh2078" route="route14" type="Car" />
  <vehicle depart="121" id="veh3212" route="route26" type="Car" />
  <vehicle depart="124" id="veh1587" route="route13" type="Car" />
  <vehicle depart="124" id="veh3555" route="route27" type="Car" />
  <vehicle depart="125" id="veh4162" route="route29" type="Car" />
  <vehicle depart="126" id="veh2245" route="route15" type="Car" />
  <vehicle depart="130" id="veh587" route="route5" type="Car" />
  <vehicle depart="130" id="veh2274" route="route15" type="Car" />
  <vehicle depart="131" id="veh971" route="route7" type="Car" />
  <vehicle depart="131" id="veh3699" route="route28" type="Car" />
  <vehicle depart="131" id="veh3999" route="route29" type="Car" />
  <vehicle depart="131" id="veh4416" route="route30" type="Car" />
  <vehicle depart="133" id="veh534" route="route5" type="Car" />
  <vehicle depart="133" id="veh2578" route="route24" type="Car" />
  <vehicle depart="133" id="veh3214" route="route26" type="Car" />
  <vehicle depart="134" id="veh4612" route="route31" type="Car" />
  <vehicle depart="135" id="veh2786" route="route25" type="Car" />
  <vehicle depart="135" id="veh4409" route="route30" type="Car" />
  <vehicle depart="136" id="veh4070" route="route29" type="Car" />
  <vehicle depart="137" id="veh154" route="route4" type="Car" />
  <vehicle depart="138" id="veh992" route="route7" type="Car" />
  <vehicle depart="139" id="veh3236" route="route26" type="Car" />
  <vehicle depart="140" id="veh1294" route="route12" type="Car" />
  <vehicle depart="140" id="veh2089" route="route14" type="Car" />
  <vehicle depart="140" id="veh4590" route="route31" type="Car" />
  <vehicle depart="141" id="veh3137" route="route26" type="Car" />
  <vehicle depart="142" id="veh4125" route="route29" type="Car" />
  <vehicle depart="143" id="veh4301" route="route30" type="Car" />
  <vehicle depart="144" id="veh542" route="route5" type="Car" />
  <vehicle depart="144" id="veh3349" route="route27" type="Car" />
  <vehicle depart="145" id="veh2898" route="route25" type="Car" />
  <vehicle depart="145" id="veh3747" route="route28" type="Car" />
  <vehicle depart="145" id="veh4088" route="route29" type="Car" />
  <vehicle depart="147" id="veh258" route="route4" type="Car" />
  <vehicle depart="147" id="veh731" route="route6" type="Car" />
  <vehicle depart="147" id="veh3523" route="route27" type="Car" />
  <vehicle depart="148" id="veh2869" route="route25" type="Car" />
  <vehicle depart="150" id="veh1734" route="route13" type="Car" />
  <vehicle depart="150" id="veh4287" route="route30" type="Car" />
  <vehicle depart="151" id="veh1589" route="route13" type="Car" />
  <vehicle depart="151" id="veh3726" route="route28" type="Car" />
  <vehicle depart="152" id="veh2637" route="route24" type="Car" />
  <vehicle depart="152" id="veh3757" route="route28" type="Car" />
  <vehicle depart="153" id="veh1916" route="route14" type="Car" />
  <vehicle depart="154" id="veh209" route="route4" type="Car" />
  <vehicle depart="154" id="veh2688" route="route24" type="Car" />
  <vehicle depart="157" id="veh206" route="route4" type="Car" />
  <vehicle depart="157" id="veh2132" route="route15" type="Car" />
  <vehicle depart="157" id="veh4785" route="route31" type="Car" />
  <vehicle depart="158" id="veh894" route="route6" type="Car" />
  <vehicle depart="161" id="veh922" route="route7" type="Car" />
  <vehicle depart="161" id="veh3631" route="route28" type="Car" />
  <vehicle depart="162" id="veh2000" route="route14" type="Car" />
  <vehicle depart="162" id="veh2157" route="route15" type="Car" />
  <vehicle depart="163" id="veh2900" route="route25" type="Car" />
  <vehicle depart="163" id="veh4453" route="route30" type="Car" />
  <vehicle depart="165" id="veh4223" route="route30" type="Car" />
  <vehicle depart="166" id="veh1878" route="route14" type="Car" />
  <vehicle depart="167" id="veh3023" route="route26" type="Car" />
  <vehicle depart="168" id="veh1801" route="route14" type="Car" />
  <vehicle depart="168" id="veh4192" route="route29" type="Car" />
  <vehicle depart="171" id="veh745" route="route6" type="Car" />
  <vehicle depart="171" id="veh767" route="route6" type="Car" />
  <vehicle depart="173" id="veh1955" route="route14" type="Car" />
  <vehicle depart="173" id="veh4196" route="route30" type="Car" />
  <vehicle depart="175" id="veh2108" route="route15" type="Car" />
  <vehicle depart="177" id="veh739" route="route6" type="Car" />
  <vehicle depart="177" id="veh4343" route="route30" type="Car" />
  <vehicle depart="178" id="veh1769" route="route13" type="Car" />
  <vehicle depart="179" id="veh3249" route="route26" type="Car" />
  <vehicle depart="180" id="veh125" route="route4" type="Car" />
  <vehicle depart="180" id="veh903" route="route7" type="Car" />
  <vehicle depart="181" id="veh4075" route="route29" type="Car" />
  <vehicle depart="183" id="veh324" route="route5" type="Car" />
  <vehicle depart="184" id="veh1778" route="route13" type="Car" />
  <vehicle depart="184" id="veh1800" route="route14" type="Car" />
  <vehicle depart="184" id="veh2548" route="route24" type="Car" />
  <vehicle depart="184" id="veh2790" route="route25" type="Car" />
  <vehicle depart="184" id="veh2979" route="route25" type="Car" />
  <vehicle depart="184" id="veh3180" route="route26" type="Car" />
  <vehicle depart="184" id="veh4283" route="route30" type="Car" />
  <vehicle depart="185" id="veh3727" route="route28" type="Car" />
  <vehicle depart="186" id="veh2111" route="route15" type="Car" />
  <vehicle depart="186" id="veh4645" route="route31" type="Car" />
  <vehicle depart="187" id="veh2625" route="route24" type="Car" />
  <vehicle depart="187" id="veh3881" route="route28" type="Car" />
  <vehicle depart="188" id="veh2794" route="route25" type="Car" />
  <vehicle depart="189" id="veh271" route="route4" type="Car" />
  <vehicle depart="189" id="veh2855" route="route25" type="Car" />
  <vehicle depart="189" id="veh2925" route="route25" type="Car" />
  <vehicle depart="190" id="veh179" route="route4" type="Car" />
  <vehicle depart="190" id="veh267" route="route4" type="Car" />
  <vehicle depart="190" id="veh3173" route="route26" type="Car" />
  <vehicle depart="190" id="veh4234" route="route30" type="Car" />
  <vehicle depart="192" id="veh923" route="route7" type="Car" />
  <vehicle depart="192" id="veh2904" route="route25" type="Car" />
  <vehicle depart="193" id="veh34" route="route4" type="Car" />
  <vehicle depart="194" id="veh3784" route="route28" type="Car" />
  <vehicle depart="195" id="veh1240" route="route12" type="Car" />
  <vehicle depart="195" id="veh2197" route="route15" type="Car" />
  <vehicle depart="196" id="veh3646" route="route28" type="Car" />
  <vehicle depart="197" id="veh3680" route="route28" type="Car" />
  <vehicle depart="198" id="veh3761" route="route28" type="Car" />
  <vehicle depart="200" id="veh252" route="route4" type="Car" />
  <vehicle depart="203" id="veh3163" route="route26" type="Car" />
  <vehicle depart="203" id="veh4281" route="route30" type="Car" />
  <vehicle depart="205" id="veh162" route="route4" type="Car" />
  <vehicle depart="206" id="veh1173" route="route7" type="Car" />
  <vehicle depart="206" id="veh1905" route="route14" type="Car" />
  <vehicle depart="206" id="veh3097" route="route26" type="Car" />
  <vehicle depart="207" id="veh467" route="route5" type="Car" />
  <vehicle depart="207" id="veh1036" route="route7" type="Car" />
  <vehicle depart="208" id="veh438" route="route5" type="Car" />
  <vehicle depart="208" id="veh957" route="route7" type="Car" />
  <vehicle depart="211" id="veh1" route="route4" type="Car" />
  <vehicle depart="212" id="veh18" route="route4" type="Car" />
  <vehicle depart="212" id="veh2346" route="route15" type="Car" />
  <vehicle depart="213" id="veh409" route="route5" type="Car" />
  <vehicle depart="213" id="veh2428" route="route24" type="Car" />
  <vehicle depart="214" id="veh1496" route="route12" type="Car" />
  <vehicle depart="214" id="veh3989" route="route29" type="Car" />
  <vehicle depart="215" id="veh2232" route="route15" type="Car" />
  <vehicle depart="216" id="veh123" route="route4" type="Car" />
  <vehicle depart="217" id="veh2242" route="route15" type="Car" />
  <vehicle depart="219" id="veh3532" route="route27" type="Car" />
  <vehicle depart="219" id="veh4194" route="route30" type="Car" />
  <vehicle depart="220" id="veh1982" route="route14" type="Car" />
  <vehicle depart="220" id="veh4029" route="route29" type="Car" />
  <vehicle depart="221" id="veh1567" route="route13" type="Car" />
  <vehicle depart="222" id="veh2884" route="route25" type="Car" />
  <vehicle depart="223" id="veh1437" route="route12" type="Car" />
  <vehicle depart="224" id="veh735" route="route6" type="Car" />
  <vehicle depart="225" id="veh1715" route="route13" type="Car" />
  <vehicle depart="225" id="veh2610" route="route24" type="Car" />
  <vehicle depart="229" id="veh3172" route="route26" type="Car" />
  <vehicle depart="229" id="veh3317" route="route27" type="Car" />
  <vehicle depart="230" id="veh673" route="route6" type="Car" />
  <vehicle depart="231" id="veh1911" route="route14" type="Car" />
  <vehicle depart="231" id="veh4448" route="route30" type="Car" />
  <vehicle depart="232" id="veh851" route="route6" type="Car" />
  <vehicle depart="232" id="veh2039" route="route14" type="Car" />
  <vehicle depart="232" id="veh2701" route="route25" type="Car" />
  <vehicle depart="233" id="veh4784" route="route31" type="Car" />
  <vehicle depart="234" id="veh1651" route="route13" type="Car" />
  <vehicle depart="235" id="veh1340" route="route12" type="Car" />
  <vehicle depart="235" id="veh3022" route="route26" type="Car" />
  <vehicle depart="235" id="veh4363" route="route30" type="Car" />
  <vehicle depart="236" id="veh1696" route="route13" type="Car" />
  <vehicle depart="237" id="veh138" route="route4" type="Car" />
  <vehicle depart="237" id="veh2007" route="route14" type="Car" />
  <vehicle depart="238" id="veh1067" route="route7" type="Car" />
  <vehicle depart="239" id="veh4013" route="route29" type="Car" />
  <vehicle depart="240" id="veh964" route="route7" type="Car" />
  <vehicle depart="240" id="veh2555" route="route24" type="Car" />
  <vehicle depart="240" id="veh3309" route="route27" type="Car" />
  <vehicle depart="241" id="veh544" route="route5" type="Car" />
  <vehicle depart="241" id="veh4765" route="route31" type="Car" />
  <vehicle depart="242" id="veh4041" route="route29" type="Car" />
  <vehicle depart="243" id="veh905" route="route7" type="Car" />
  <vehicle depart="243" id="veh1997" route="route14" type="Car" />
  <vehicle depart="244" id="veh3977" route="route29" type="Car" />
  <vehicle depart="245" id="veh1937" route="route14" type="Car" />
  <vehicle depart="245" id="veh3280" route="route26" type="Car" />
  <vehicle depart="245" id="veh4024" route="route29" type="Car" />
  <vehicle depart="246" id="veh549" route="route5" type="Car" />
  <vehicle depart="246" id="veh962" route="route7" type="Car" />
  <vehicle depart="246" id="veh1177" route="route7" type="Car" />
  <vehicle depart="246" id="veh4535" route="route31" type="Car" />
  <vehicle depart="247" id="veh2244" route="route15" type="Car" />
  <vehicle depart="249" id="veh3063" route="route26" type="Car" />
  <vehicle depart="250" id="veh2614" route="route24" type="Car" />
  <vehicle depart="251" id="veh3487" route="route27" type="Car" />
  <vehicle depart="251" id="veh3494" route="route27" type="Car" />
  <vehicle depart="253" id="veh2733" route="route25" type="Car" />
  <vehicle depart="253" id="veh3127" route="route26" type="Car" />
  <vehicle depart="253" id="veh4546" route="route31" type="Car" />
  <vehicle depart="254" id="veh1448" route="route12" type="Car" />
  <vehicle depart="254" id="veh2032" route="route14" type="Car" />
  <vehicle depart="254" id="veh2965" route="route25" type="Car" />
  <vehicle depart="255" id="veh449" route="route5" type="Car" />
  <vehicle depart="256" id="veh368" route="route5" type="Car" />
  <vehicle depart="256" id="veh1575" route="route13" type="Car" />
  <vehicle depart="257" id="veh121" route="route4" type="Car" />
  <vehicle depart="257" id="veh2239" route="route15" type="Car" />
  <vehicle depart="259" id="veh4012" route="route29" type="Car" />
  <vehicle depart="259" id="veh4769" route="route31" type="Car" />
  <vehicle depart="260" id="veh3120" route="route26" type="Car" />
  <vehicle depart="260" id="veh4007" route="route29" type="Car" />
  <vehicle depart="260" id="veh4352" route="route30" type="Car" />
  <vehicle depart="261" id="veh2058" route="route14" type="Car" />
  <vehicle depart="261" id="veh2791" route="route25" type="Car" />
  <vehicle depart="262" id="veh159" route="route4" type="Car" />
  <vehicle depart="262" id="veh1856" route="route14" type="Car" />
  <vehicle depart="262" id="veh4327" route="route30" type="Car" />
  <vehicle depart="263" id="veh536" route="route5" type="Car" />
  <vehicle depart="263" id="veh703" route="route6" type="Car" />
  <vehicle depart="263" id="veh1608" route="route13" type="Car" />
  <vehicle depart="263" id="veh3668" route="route28" type="Car" />
  <vehicle depart="264" id="veh4228" route="route30" type="Car" />
  <vehicle depart="265" id="veh1172" route="route7" type="Car" />
  <vehicle depart="265" id="veh1360" route="route12" type="Car" />
  <vehicle depart="267" id="veh1718" route="route13" type="Car" />
  <vehicle depart="268" id="veh122" route="route4" type="Car" />
  <vehicle depart="269" id="veh2497" route="route24" type="Car" />
  <vehicle depart="269" id="veh3624" route="route28" type="Car" />
  <vehicle depart="270" id="veh979" route="route7" type="Car" />
  <vehicle depart="271" id="veh396" route="route5" type="Car" />
  <vehicle depart="271" id="veh1415" route="route12" type="Car" />
  <vehicle depart="272" id="veh1683" route="route13" type="Car" />
  <vehicle depart="272" id="veh2842" route="route25" type="Car" />
  <vehicle depart="272" id="veh4583" route="route31" type="Car" />
  <vehicle depart="274" id="veh102" route="route4" type="Car" />
  <vehicle depart="276" id="veh2523" route="route24" type="Car" />
  <vehicle depart="276" id="veh3337" route="route27" type="Car" />
  <vehicle depart="276" id="veh3946" route="route29" type="Car" />