<nodes>
   <node id="01" x="0.000000" y="250.000000" type="traffic_light_right_on_red" tl="01"/>
   <node id="01_0" x="40.000000" y="280.000000" type="priority"/>
   <node id="01_1" x="45.000000" y="225.000000" type="priority"/>
   <node id="01_2" x="-35.000000" y="265.000000" type="priority"/>

   <node id="02" x="320.000000" y="110.000000" type="traffic_light_right_on_red" tl="02"/>
   <node id="02_0" x="335.000000" y="125.000000" type="priority"/>
   <node id="02_1" x="345.000000" y="95.000000" type="priority"/>
   <node id="02_2" x="285.000000" y="125.000000" type="priority"/>

   <node id="03" x="380.000000" y="150.000000" type="traffic_light_right_on_red" tl="03"/>
   <node id="03_0" x="395.000000" y="165.000000" type="priority"/>
   <node id="03_1" x="365.000000" y="135.000000" type="priority"/>
   <node id="03_2" x="355.000000" y="180.000000" type="priority"/>

   <node id="04" x="510.000000" y="30.000000" type="traffic_light_right_on_red" tl="04"/>
   <node id="04_0" x="535.000000" y="50.000000" type="priority"/>
   <node id="04_1" x="550.000000" y="25.000000" type="priority"/>
   <node id="04_2" x="470.000000" y="35.000000" type="priority"/>

   <node id="05" x="180.000000" y="390.000000" type="traffic_light_right_on_red" tl="05"/>
   <node id="05_0" x="200.000000" y="405.000000" type="priority"/>
   <node id="05_1" x="200.000000" y="350.000000" type="priority"/>
   <node id="05_2" x="145.000000" y="360.000000" type="priority"/>
   <node id="05_3" x="150.000000" y="430.000000" type="priority"/>

   <node id="06" x="290.000000" y="500.000000" type="traffic_light_right_on_red" tl="06"/>
   <node id="06_0" x="315.000000" y="520.000000" type="priority"/>
   <node id="06_1" x="320.000000" y="460.000000" type="priority"/>
   <node id="06_2" x="260.000000" y="475.000000" type="priority"/>
   <node id="06_3" x="260.000000" y="540.000000" type="priority"/>

   <node id="07" x="400.000000" y="390.000000" type="priority"/>
   <node id="07_0" x="420.000000" y="405.000000" type="priority"/>
   <node id="07_1" x="420.000000" y="360.000000" type="priority"/>
   <node id="07_2" x="385.000000" y="415.000000" type="priority"/>

   <node id="08" x="500.000000" y="250.000000" type="traffic_light_right_on_red" tl="08"/>
   <node id="08_0" x="525.000000" y="270.000000" type="priority"/>
   <node id="08_1" x="530.000000" y="210.000000" type="priority"/>
   <node id="08_2" x="470.000000" y="225.000000" type="priority"/>
   <node id="08_3" x="470.000000" y="290.000000" type="priority"/>

</nodes>