<configuration>
   <input>
      <node-files value="C:/Users/FILAB/Desktop/arrange/5_code/SUMO/sumo_DT/dummy/dummy18.nod.xml"/>
      <edge-files value="C:/Users/FILAB/Desktop/arrange/5_code/SUMO/sumo_DT/dummy/dummy18.edg.xml"/>
      <connection-files value="C:/Users/FILAB/Desktop/arrange/5_code/SUMO/sumo_DT/dummy/dummy18.con.xml"/>
      <tllogic-files value="C:/Users/FILAB/Desktop/arrange/5_code/SUMO/sumo_DT/dummy/dummy18.tll.xml"/>
   </input>

   <output>
      <output-file value="C:/Users/FILAB/Desktop/arrange/5_code/SUMO/sumo_DT/dummy/dummy18.net.xml"/>
   </output>

   <report>
      <verbose value="true"/>
   </report>
</configuration>