<configuration>
   <input>
      <net-file value="C:/Users/FILAB/Desktop/arrange/5_code/SUMO/sumo_DT/dummy/dummy19.net.xml"/>
      <route-files value="C:/Users/FILAB/Desktop/arrange/5_code/SUMO/sumo_DT/dummy/dummy19.rou.xml"/>
   </input>
   <output>
   </output>
   <time>
      <begin value="0"/>
      <end value="600"/>
   </time>
</configuration>