<?xml version="1.0" encoding="UTF-8"?>

<!-- generated on 2023-08-16 18:45:54 by Eclipse SUMO netconvert Version 1.15.0
<configuration xmlns:xsi="http://www.w3.org/2001/XMLSchema-instance" xsi:noNamespaceSchemaLocation="http://sumo.dlr.de/xsd/netconvertConfiguration.xsd">

    <input>
        <node-files value="C:/Users/FILAB/Desktop/arrange/5_code/SUMO/sumo_DT/dummy/dummy18.nod.xml"/>
        <edge-files value="C:/Users/FILAB/Desktop/arrange/5_code/SUMO/sumo_DT/dummy/dummy18.edg.xml"/>
        <connection-files value="C:/Users/FILAB/Desktop/arrange/5_code/SUMO/sumo_DT/dummy/dummy18.con.xml"/>
        <tllogic-files value="C:/Users/FILAB/Desktop/arrange/5_code/SUMO/sumo_DT/dummy/dummy18.tll.xml"/>
    </input>

    <output>
        <output-file value="C:/Users/FILAB/Desktop/arrange/5_code/SUMO/sumo_DT/dummy/dummy18.net.xml"/>
    </output>

    <report>
        <verbose value="true"/>
    </report>

</configuration>
-->

<net version="1.9" junctionCornerDetail="5" limitTurnSpeed="5.50" xmlns:xsi="http://www.w3.org/2001/XMLSchema-instance" xsi:noNamespaceSchemaLocation="http://sumo.dlr.de/xsd/net_file.xsd">

    <location netOffset="35.00,-25.00" convBoundary="0.00,0.00,585.00,515.00" origBoundary="-35.00,25.00,550.00,540.00" projParameter="!"/>

    <edge id=":01_0" function="internal">
        <lane id=":01_0_0" index="0" speed="8.66" length="10.09" shape="39.27,234.20 36.83,232.71 34.44,231.91 32.10,231.83 29.81,232.45"/>
    </edge>
    <edge id=":01_1" function="internal">
        <lane id=":01_1_0" index="0" speed="7.46" length="16.13" shape="41.19,231.64 37.82,228.30 36.84,225.13 38.24,222.11 42.03,219.26"/>
    </edge>
    <edge id=":01_2" function="internal">
        <lane id=":01_2_0" index="0" speed="5.79" length="9.15" shape="43.59,222.06 41.44,223.68 40.64,225.39 41.20,227.19 43.11,229.08"/>
    </edge>
    <edge id=":01_3" function="internal">
        <lane id=":01_3_0" index="0" speed="50.00" length="16.79" shape="43.59,222.06 40.48,223.78 37.32,225.45 33.54,227.29 28.55,229.50"/>
    </edge>
    <edge id=":01_4" function="internal">
        <lane id=":01_4_0" index="0" speed="50.00" length="16.14" shape="26.03,223.62 30.42,221.71 33.39,220.32 36.29,218.79 40.48,216.46"/>
    </edge>
    <edge id=":01_5" function="internal">
        <lane id=":01_5_0" index="0" speed="11.04" length="16.81" shape="27.29,226.56 31.25,225.45 35.21,225.49 39.16,226.70 43.11,229.08"/>
    </edge>
    <edge id=":01_0_0" function="internal">
        <lane id=":01_0_0_0" index="0" speed="40.00" length="8.39" shape="77.22,258.70 74.96,257.61 73.08,257.56 71.19,257.52 68.92,256.44"/>
        <lane id=":01_0_0_1" index="1" speed="40.00" length="8.39" shape="77.22,258.70 70.84,253.88"/>
    </edge>
    <edge id=":01_0_2" function="internal">
        <lane id=":01_0_2_0" index="0" speed="40.00" length="8.02" shape="72.76,251.32 79.16,256.15"/>
    </edge>
    <edge id=":01_1_0" function="internal">
        <lane id=":01_1_0_0" index="0" speed="50.00" length="0.18" shape="80.78,201.41 80.73,201.43 80.70,201.44 80.67,201.46 80.62,201.49"/>
    </edge>
    <edge id=":01_1_1" function="internal">
        <lane id=":01_1_1_0" index="0" speed="50.00" length="0.72" shape="77.51,195.89 77.75,195.76 77.91,195.68 78.07,195.60 78.32,195.50"/>
        <lane id=":01_1_1_1" index="1" speed="50.00" length="0.72" shape="79.07,198.69 79.21,198.61 79.30,198.56 79.40,198.52 79.55,198.45"/>
    </edge>
    <edge id=":01_2_0" function="internal">
        <lane id=":01_2_0_0" index="0" speed="3.65" length="4.67" shape="0.63,241.47 -0.79,241.21 -1.47,240.63 -1.42,239.74 -0.63,238.53"/>
    </edge>
    <edge id=":02_0" function="internal">
        <lane id=":02_0_0" index="0" speed="6.04" length="9.07" shape="365.60,80.51 363.59,82.14 362.77,83.91 363.14,85.83 364.69,87.90"/>
    </edge>
    <edge id=":02_1" function="internal">
        <lane id=":02_1_0" index="0" speed="50.00" length="16.03" shape="365.60,80.51 362.24,82.52 358.69,84.59 355.08,86.54 351.55,88.22"/>
    </edge>
    <edge id=":02_2" function="internal">
        <lane id=":02_2_0" index="0" speed="50.00" length="15.18" shape="349.03,82.33 353.13,80.48 355.84,79.02 358.47,77.39 362.30,75.02"/>
    </edge>
    <edge id=":02_3" function="internal">
        <lane id=":02_3_0" index="0" speed="9.29" length="13.83" shape="350.29,85.28 352.95,84.77 355.86,85.41 359.02,87.21 362.42,90.16"/>
    </edge>
    <edge id=":02_0_0" function="internal">
        <lane id=":02_0_0_0" index="0" speed="30.00" length="1.49" shape="372.33,95.54 372.48,95.69 372.61,95.78 372.74,95.85 372.95,95.92"/>
        <lane id=":02_0_0_1" index="1" speed="8.09" length="1.49" shape="370.06,97.80 370.54,98.26 370.90,98.54 371.31,98.74 371.94,98.96"/>
    </edge>
    <edge id=":02_1_0" function="internal">
        <lane id=":02_1_0_0" index="0" speed="50.00" length="0.15" shape="380.83,71.38 380.79,71.40 380.76,71.41 380.73,71.43 380.70,71.45"/>
    </edge>
    <edge id=":02_1_1" function="internal">
        <lane id=":02_1_1_0" index="0" speed="50.00" length="0.59" shape="377.40,65.96 377.59,65.85 377.72,65.77 377.86,65.70 378.06,65.61"/>
        <lane id=":02_1_1_1" index="1" speed="50.00" length="0.59" shape="379.05,68.70 379.16,68.64 379.24,68.59 379.32,68.55 379.44,68.49"/>
    </edge>
    <edge id=":02_2_0" function="internal">
        <lane id=":02_2_0_0" index="0" speed="50.00" length="0.33" shape="320.77,101.41 320.47,101.54"/>
    </edge>
    <edge id=":02_2_1" function="internal">
        <lane id=":02_2_1_0" index="0" speed="50.00" length="0.28" shape="318.01,95.63 318.25,95.53"/>
        <lane id=":02_2_1_1" index="1" speed="50.00" length="0.28" shape="319.24,98.58 319.51,98.47"/>
    </edge>
    <edge id=":03_0" function="internal">
        <lane id=":03_0_0" index="0" speed="30.00" length="11.21" shape="413.29,116.51 421.22,124.43"/>
        <lane id=":03_0_1" index="1" speed="30.00" length="11.21" shape="411.03,118.77 418.96,126.70"/>
    </edge>
    <edge id=":03_2" function="internal">
        <lane id=":03_2_0" index="0" speed="6.32" length="9.04" shape="411.21,127.05 413.08,125.37 414.99,124.75 416.95,125.19 418.96,126.70"/>
    </edge>
    <edge id=":03_0_0" function="internal">
        <lane id=":03_0_0_0" index="0" speed="30.00" length="0.35" shape="433.14,136.36 433.18,136.39 433.21,136.42 433.23,136.44 433.28,136.47"/>
        <lane id=":03_0_0_1" index="1" speed="30.00" length="0.35" shape="430.88,138.62 430.99,138.73 431.07,138.80 431.15,138.87 431.28,138.97"/>
    </edge>
    <edge id=":03_1_0" function="internal">
        <lane id=":03_1_0_0" index="0" speed="8.09" length="1.49" shape="401.52,105.45 402.14,105.66 402.56,105.86 402.92,106.14 403.39,106.61"/>
        <lane id=":03_1_0_1" index="1" speed="30.00" length="1.49" shape="400.51,108.48 400.71,108.55 400.85,108.62 400.97,108.71 401.13,108.87"/>
    </edge>
    <edge id=":03_2_0" function="internal">
        <lane id=":03_2_0_0" index="0" speed="30.00" length="0.20" shape="388.73,154.02 388.86,153.87"/>
    </edge>
    <edge id=":04_0" function="internal">
        <lane id=":04_0_0" index="0" speed="13.70" length="17.89" shape="554.53,18.77 549.45,14.98 545.16,12.35 541.66,10.89 538.94,10.59"/>
    </edge>
    <edge id=":04_1" function="internal">
        <lane id=":04_1_0" index="0" speed="8.21" length="23.86" shape="556.53,16.27 550.90,10.71 549.50,6.41 552.32,3.37 559.38,1.59"/>
    </edge>
    <edge id=":04_2" function="internal">
        <lane id=":04_2_0" index="0" speed="5.48" length="9.70" shape="560.17,7.94 557.17,8.67 555.90,9.88 556.35,11.58 558.53,13.77"/>
    </edge>
    <edge id=":04_3" function="internal">
        <lane id=":04_3_0" index="0" speed="50.00" length="21.39" shape="559.78,4.77 538.55,7.42"/>
    </edge>
    <edge id=":04_4" function="internal">
        <lane id=":04_4_0" index="0" speed="50.00" length="21.39" shape="537.75,1.07 558.98,-1.59"/>
    </edge>
    <edge id=":04_5" function="internal">
        <lane id=":04_5_0" index="0" speed="15.47" length="22.96" shape="538.15,4.24 542.17,4.50 546.91,6.17 552.36,9.26 558.53,13.77"/>
    </edge>
    <edge id=":04_0_0" function="internal">
        <lane id=":04_0_0_0" index="0" speed="3.65" length="4.67" shape="571.00,23.75 571.44,25.12 571.25,26.00 570.44,26.37 569.00,26.25"/>
    </edge>
    <edge id=":04_1_0" function="internal">
        <lane id=":04_1_0_0" index="0" speed="3.65" length="4.67" shape="584.80,-1.59 586.09,-0.94 586.59,-0.20 586.29,0.64 585.20,1.59"/>
    </edge>
    <edge id=":04_2_0" function="internal">
        <lane id=":04_2_0_0" index="0" speed="27.65" length="8.48" shape="500.60,15.39 498.11,15.72 496.42,16.09 494.81,16.69 492.53,17.76"/>
    </edge>
    <edge id=":04_2_1" function="internal">
        <lane id=":04_2_1_0" index="0" speed="32.39" length="11.16" shape="489.76,11.99 492.65,10.09 494.39,8.26 496.23,6.77 499.41,5.86"/>
        <lane id=":04_2_1_1" index="1" speed="31.00" length="11.16" shape="491.15,14.87 493.76,13.10 495.30,11.35 496.93,9.90 499.81,9.04"/>
    </edge>
    <edge id=":05_0" function="internal">
        <lane id=":05_0_0" index="0" speed="6.51" length="9.03" shape="217.88,373.16 215.71,371.97 213.68,371.76 211.79,372.53 210.04,374.28"/>
    </edge>
    <edge id=":05_1" function="internal">
        <lane id=":05_1_0" index="0" speed="30.00" length="16.71" shape="217.88,373.16 213.94,369.52 211.47,366.14 209.54,363.09 207.20,360.42"/>
    </edge>
    <edge id=":05_2" function="internal">
        <lane id=":05_2_0" index="0" speed="9.61" length="18.08" shape="219.80,370.60 217.17,367.65 216.10,363.91 216.60,359.39 218.67,354.09"/>
    </edge>
    <edge id=":05_3" function="internal">
        <lane id=":05_3_0" index="0" speed="30.00" length="16.27" shape="211.37,355.56 215.02,359.32 217.35,362.66 219.28,365.57 221.72,368.04"/>
    </edge>
    <edge id=":05_4" function="internal">
        <lane id=":05_4_0" index="0" speed="9.24" length="18.31" shape="209.29,357.99 212.29,361.55 213.42,365.45 212.67,369.69 210.04,374.28"/>
    </edge>
    <edge id=":05_5" function="internal">
        <lane id=":05_5_0" index="0" speed="7.98" length="13.40" shape="207.48,372.36 209.47,368.94 210.08,365.82 209.33,362.98 207.20,360.42"/>
    </edge>
    <edge id=":05_6" function="internal">
        <lane id=":05_6_0" index="0" speed="30.00" length="21.44" shape="207.48,372.36 210.18,368.45 213.36,363.40 216.40,358.27 218.67,354.09"/>
    </edge>
    <edge id=":05_7" function="internal">
        <lane id=":05_7_0" index="0" speed="8.67" length="16.85" shape="207.48,372.36 211.07,368.49 214.64,366.48 218.19,366.33 221.72,368.04"/>
    </edge>
    <edge id=":05_0_0" function="internal">
        <lane id=":05_0_0_0" index="0" speed="35.00" length="8.88" shape="246.22,395.54 244.60,393.68 243.42,392.46 242.13,391.36 240.16,389.87"/>
        <lane id=":05_0_0_1" index="1" speed="35.00" length="8.88" shape="246.22,395.54 244.82,393.17 244.41,391.15 243.86,389.27 242.08,387.31"/>
    </edge>
    <edge id=":05_0_2" function="internal">
        <lane id=":05_0_2_0" index="0" speed="35.00" length="10.07" shape="244.00,384.75 245.94,386.83 246.60,388.81 247.12,390.94 248.65,393.46"/>
    </edge>
    <edge id=":05_1_0" function="internal">
        <lane id=":05_1_0_0" index="0" speed="30.00" length="0.44" shape="233.57,324.28 233.63,324.17 233.67,324.09 233.73,324.02 233.82,323.92"/>
    </edge>
    <edge id=":05_2_0" function="internal">
        <lane id=":05_2_0_0" index="0" speed="35.00" length="7.69" shape="181.93,338.76 175.95,333.93"/>
    </edge>
    <edge id=":05_2_1" function="internal">
        <lane id=":05_2_1_0" index="0" speed="35.00" length="8.33" shape="177.89,331.38 180.16,332.48 182.05,332.57 183.92,332.70 186.10,333.90"/>
        <lane id=":05_2_1_1" index="1" speed="35.00" length="8.33" shape="177.89,331.38 184.02,336.33"/>
    </edge>
    <edge id=":05_3_0" function="internal">
        <lane id=":05_3_0_0" index="0" speed="3.65" length="4.67" shape="186.28,405.96 184.92,406.44 184.04,406.28 183.64,405.48 183.72,404.04"/>
    </edge>
    <edge id=":06_0" function="internal">
        <lane id=":06_0_0" index="0" speed="6.44" length="9.03" shape="336.44,498.49 334.30,497.23 332.28,496.98 330.40,497.73 328.64,499.48"/>
    </edge>
    <edge id=":06_1" function="internal">
        <lane id=":06_1_0" index="0" speed="45.00" length="47.27" shape="338.44,496.00 327.36,485.78 317.93,475.25 310.71,466.45 306.26,461.47"/>
    </edge>
    <edge id=":06_2" function="internal">
        <lane id=":06_2_0" index="0" speed="12.20" length="33.57" shape="340.44,493.50 332.47,485.86 328.13,478.59 327.43,471.70 330.36,465.19"/>
        <lane id=":06_2_1" index="1" speed="12.31" length="34.20" shape="342.44,491.00 333.22,482.62 327.70,475.21 325.90,468.76 327.80,463.27"/>
    </edge>
    <edge id=":06_4" function="internal">
        <lane id=":06_4_0" index="0" speed="7.81" length="13.13" shape="343.16,474.79 341.85,477.50 341.96,480.28 343.49,483.11 346.43,486.00"/>
    </edge>
    <edge id=":06_5" function="internal">
        <lane id=":06_5_0" index="0" speed="60.00" length="28.47" shape="343.16,474.79 326.08,497.56"/>
        <lane id=":06_5_1" index="1" speed="60.00" length="28.47" shape="340.60,472.87 323.52,495.64"/>
        <lane id=":06_5_2" index="2" speed="60.00" length="28.47" shape="338.04,470.95 320.96,493.72"/>
        <lane id=":06_5_3" index="3" speed="60.00" length="28.47" shape="335.48,469.03 318.40,491.80"/>
    </edge>
    <edge id=":06_9" function="internal">
        <lane id=":06_9_0" index="0" speed="11.29" length="30.46" shape="332.92,467.11 328.38,470.58 322.43,470.80 315.05,467.76 306.26,461.47"/>
    </edge>
    <edge id=":06_10" function="internal">
        <lane id=":06_10_0" index="0" speed="7.83" length="14.09" shape="310.36,456.55 314.47,459.51 317.89,460.98 320.63,460.95 322.68,459.43"/>
    </edge>
    <edge id=":06_11" function="internal">
        <lane id=":06_11_0" index="0" speed="45.00" length="46.71" shape="310.36,456.55 344.44,488.50"/>
    </edge>
    <edge id=":06_12" function="internal">
        <lane id=":06_12_0" index="0" speed="12.67" length="35.69" shape="308.31,459.01 315.86,466.84 319.63,474.60 319.62,482.28 315.84,489.88"/>
    </edge>
    <edge id=":06_13" function="internal">
        <lane id=":06_13_0" index="0" speed="9.36" length="19.04" shape="300.48,478.36 304.60,472.30 306.93,467.46 307.49,463.85 306.26,461.47"/>
    </edge>
    <edge id=":06_14" function="internal">
        <lane id=":06_14_0" index="0" speed="60.00" length="29.41" shape="300.48,478.36 306.41,472.12 311.58,468.90 316.75,465.67 322.68,459.43"/>
        <lane id=":06_14_1" index="1" speed="60.00" length="29.41" shape="303.04,480.28 308.97,474.04 314.14,470.82 319.31,467.59 325.24,461.35"/>
        <lane id=":06_14_2" index="2" speed="60.00" length="29.41" shape="305.60,482.20 311.53,475.96 316.70,472.74 321.87,469.51 327.80,463.27"/>
        <lane id=":06_14_3" index="3" speed="60.00" length="29.41" shape="308.16,484.12 314.09,477.88 319.26,474.66 324.43,471.43 330.36,465.19"/>
    </edge>
    <edge id=":06_18" function="internal">
        <lane id=":06_18_0" index="0" speed="12.72" length="38.37" shape="310.72,486.04 317.13,480.45 324.89,479.00 333.99,481.68 344.44,488.50"/>
        <lane id=":06_18_1" index="1" speed="12.68" length="38.10" shape="313.28,487.96 320.36,481.16 328.24,478.57 336.94,480.18 346.43,486.00"/>
    </edge>
    <edge id=":06_0_0" function="internal">
        <lane id=":06_0_0_0" index="0" speed="3.65" length="4.67" shape="351.00,493.75 351.44,495.12 351.25,496.00 350.44,496.37 349.00,496.25"/>
    </edge>
    <edge id=":06_1_0" function="internal">
        <lane id=":06_1_0_0" index="0" speed="60.00" length="2.58" shape="365.33,445.36 365.21,445.45 365.13,445.52 365.06,445.60 364.96,445.72"/>
        <lane id=":06_1_0_1" index="1" speed="12.11" length="2.58" shape="363.51,442.73 363.14,443.00 362.89,443.20 362.68,443.43 362.40,443.80"/>
        <lane id=":06_1_0_2" index="2" speed="15.54" length="2.58" shape="361.69,440.10 361.06,440.54 360.66,440.88 360.31,441.27 359.84,441.88"/>
        <lane id=":06_1_0_3" index="3" speed="18.34" length="2.58" shape="359.87,437.47 358.99,438.09 358.43,438.56 357.93,439.11 357.28,439.96"/>
        <lane id=":06_1_0_4" index="4" speed="20.76" length="2.58" shape="358.05,434.84 356.92,435.63 356.19,436.24 355.56,436.94 354.72,438.04"/>
    </edge>
    <edge id=":06_1_5" function="internal">
        <lane id=":06_1_5_0" index="0" speed="28.46" length="7.23" shape="344.48,430.36 346.06,428.29 347.26,426.96 348.64,425.81 350.76,424.31"/>
        <lane id=":06_1_5_1" index="1" speed="26.75" length="7.23" shape="347.04,432.28 348.44,430.45 349.49,429.28 350.71,428.27 352.58,426.94"/>
        <lane id=":06_1_5_2" index="2" speed="24.91" length="7.23" shape="349.60,434.20 350.81,432.62 351.72,431.60 352.78,430.72 354.40,429.58"/>
        <lane id=":06_1_5_3" index="3" speed="22.93" length="7.23" shape="352.16,436.12 353.18,434.78 353.96,433.92 354.85,433.18 356.22,432.21"/>
    </edge>
    <edge id=":06_2_0" function="internal">
        <lane id=":06_2_0_0" index="0" speed="40.00" length="6.99" shape="296.51,453.34 294.92,452.01 293.88,451.04 292.91,450.00 291.55,448.43"/>
    </edge>
    <edge id=":06_2_1" function="internal">
        <lane id=":06_2_1_0" index="0" speed="40.00" length="6.82" shape="293.98,446.35 295.59,447.48 297.14,447.54 298.77,447.53 300.61,448.43"/>
        <lane id=":06_2_1_1" index="1" speed="40.00" length="6.82" shape="293.98,446.35 295.23,447.80 296.13,448.76 297.10,449.65 298.56,450.88"/>
    </edge>
    <edge id=":06_3_0" function="internal">
        <lane id=":06_3_0_0" index="0" speed="3.65" length="4.67" shape="296.28,515.96 294.92,516.44 294.04,516.28 293.64,515.48 293.72,514.04"/>
    </edge>
    <edge id=":07_0" function="internal">
        <lane id=":07_0_0" index="0" speed="6.29" length="9.04" shape="442.83,384.88 440.63,383.67 438.63,383.51 436.83,384.41 435.24,386.36"/>
        <lane id=":07_0_1" index="1" speed="7.83" length="14.60" shape="444.75,382.32 441.19,380.37 437.96,380.12 435.06,381.57 432.50,384.72"/>
        <lane id=":07_0_2" index="2" speed="9.11" length="20.16" shape="446.67,379.76 441.76,377.07 437.30,376.72 433.30,378.72 429.76,383.07"/>
        <lane id=":07_0_3" index="3" speed="10.22" length="25.71" shape="448.59,377.20 442.32,373.77 436.63,373.33 431.53,375.88 427.01,381.42"/>
    </edge>
    <edge id=":07_4" function="internal">
        <lane id=":07_4_0" index="0" speed="60.00" length="21.50" shape="446.33,368.20 435.24,386.36"/>
        <lane id=":07_4_1" index="1" speed="60.00" length="21.50" shape="443.66,366.43 432.50,384.72"/>
        <lane id=":07_4_2" index="2" speed="60.00" length="21.50" shape="441.00,364.65 429.76,383.07"/>
        <lane id=":07_4_3" index="3" speed="60.00" length="21.50" shape="438.34,362.88 427.01,381.42"/>
    </edge>
    <edge id=":07_8" function="internal">
        <lane id=":07_8_0" index="0" speed="60.00" length="22.19" shape="413.29,373.19 425.03,354.00"/>
        <lane id=":07_8_1" index="1" speed="60.00" length="22.19" shape="416.04,374.84 427.69,355.78"/>
        <lane id=":07_8_2" index="2" speed="60.00" length="22.19" shape="418.78,376.48 430.35,357.55"/>
        <lane id=":07_8_3" index="3" speed="60.00" length="22.19" shape="421.52,378.13 433.01,359.33"/>
        <lane id=":07_8_4" index="4" speed="60.00" length="22.19" shape="424.27,379.78 435.68,361.10"/>
    </edge>
    <edge id=":07_1_0" function="internal">
        <lane id=":07_1_0_0" index="0" speed="60.00" length="0.27" shape="464.23,341.34 464.17,341.44"/>
        <lane id=":07_1_0_1" index="1" speed="60.00" length="0.27" shape="461.63,339.48 461.51,339.66"/>
        <lane id=":07_1_0_2" index="2" speed="60.00" length="0.27" shape="459.03,337.62 458.84,337.89"/>
        <lane id=":07_1_0_3" index="3" speed="60.00" length="0.27" shape="456.42,335.76 456.18,336.11"/>
    </edge>
    <edge id=":07_1_4" function="internal">
        <lane id=":07_1_4_0" index="0" speed="60.00" length="0.73" shape="442.87,327.24 443.40,326.46"/>
        <lane id=":07_1_4_1" index="1" speed="60.00" length="0.73" shape="445.53,329.01 446.01,328.32"/>
        <lane id=":07_1_4_2" index="2" speed="60.00" length="0.73" shape="448.19,330.79 448.61,330.18"/>
        <lane id=":07_1_4_3" index="3" speed="60.00" length="0.73" shape="450.86,332.56 451.21,332.04"/>
        <lane id=":07_1_4_4" index="4" speed="60.00" length="0.73" shape="453.52,334.34 453.82,333.90"/>
    </edge>
    <edge id=":07_2_0" function="internal">
        <lane id=":07_2_0_0" index="0" speed="25.77" length="17.04" shape="429.44,396.03 426.40,400.95 423.96,404.11 420.96,406.75 416.25,410.11"/>
        <lane id=":07_2_0_1" index="1" speed="24.86" length="17.04" shape="426.70,394.38 423.87,398.96 421.60,401.90 418.81,404.36 414.43,407.48"/>
        <lane id=":07_2_0_2" index="2" speed="23.91" length="17.04" shape="423.95,392.74 421.34,396.97 419.24,399.69 416.66,401.96 412.61,404.84"/>
        <lane id=":07_2_0_3" index="3" speed="22.93" length="17.04" shape="421.21,391.09 418.81,394.98 416.88,397.48 414.51,399.57 410.79,402.21"/>
        <lane id=":07_2_0_4" index="4" speed="22.74" length="17.04" shape="421.21,391.09 418.54,394.52 415.95,396.14 412.93,397.37 408.97,399.58"/>
    </edge>
    <edge id=":07_2_5" function="internal">
        <lane id=":07_2_5_0" index="0" speed="17.17" length="11.31" shape="401.68,389.06 403.76,387.58 405.08,386.42 406.15,385.02 407.49,382.86"/>
        <lane id=":07_2_5_1" index="1" speed="18.47" length="11.31" shape="403.50,391.69 405.91,389.98 407.44,388.63 408.68,387.02 410.23,384.51"/>
        <lane id=":07_2_5_2" index="2" speed="19.68" length="11.31" shape="405.33,394.32 408.06,392.38 409.80,390.84 411.22,389.01 412.98,386.15"/>
        <lane id=":07_2_5_3" index="3" speed="20.82" length="11.31" shape="407.15,396.95 410.21,394.77 412.16,393.05 413.75,391.00 415.72,387.80"/>
        <lane id=":07_2_5_4" index="4" speed="21.74" length="11.31" shape="407.15,396.95 410.78,394.97 413.59,393.93 416.01,392.53 418.47,389.45"/>
    </edge>
    <edge id=":08_0" function="internal">
        <lane id=":08_0_0" index="0" speed="7.76" length="12.97" shape="552.62,220.17 550.28,223.89 549.25,227.06 549.53,229.68 551.12,231.75"/>
    </edge>
    <edge id=":08_1" function="internal">
        <lane id=":08_1_0" index="0" speed="60.00" length="18.83" shape="552.62,220.17 541.32,235.24"/>
        <lane id=":08_1_1" index="1" speed="60.00" length="18.83" shape="550.06,218.25 538.76,233.32"/>
        <lane id=":08_1_2" index="2" speed="60.00" length="18.83" shape="547.50,216.33 536.20,231.40"/>
        <lane id=":08_1_3" index="3" speed="60.00" length="18.83" shape="544.94,214.41 533.64,229.48"/>
    </edge>
    <edge id=":08_5" function="internal">
        <lane id=":08_5_0" index="0" speed="6.40" length="9.04" shape="524.36,205.72 526.49,207.03 528.49,207.31 530.37,206.58 532.14,204.81"/>
    </edge>
    <edge id=":08_6" function="internal">
        <lane id=":08_6_0" index="0" speed="35.00" length="37.36" shape="524.36,205.72 551.12,231.75"/>
        <lane id=":08_6_1" index="1" speed="35.00" length="37.36" shape="522.31,208.18 549.12,234.25"/>
    </edge>
    <edge id=":08_8" function="internal">
        <lane id=":08_8_0" index="0" speed="10.52" length="24.30" shape="520.27,210.64 527.45,217.11 532.07,222.40 534.14,226.53 533.64,229.48"/>
    </edge>
    <edge id=":08_9" function="internal">
        <lane id=":08_9_0" index="0" speed="60.00" length="19.19" shape="520.84,219.88 524.62,215.68 527.77,213.31 530.92,210.94 534.70,206.73"/>
        <lane id=":08_9_1" index="1" speed="60.00" length="19.19" shape="523.40,221.80 527.18,217.60 530.33,215.23 533.48,212.86 537.26,208.65"/>
        <lane id=":08_9_2" index="2" speed="60.00" length="19.19" shape="525.96,223.72 529.74,219.52 532.89,217.15 536.04,214.78 539.82,210.57"/>
        <lane id=":08_9_3" index="3" speed="60.00" length="19.19" shape="528.52,225.64 532.30,221.44 535.45,219.07 538.60,216.70 542.38,212.49"/>
    </edge>
    <edge id=":08_13" function="internal">
        <lane id=":08_13_0" index="0" speed="9.44" length="20.66" shape="531.08,227.56 533.57,226.16 537.41,226.81 542.59,229.51 549.12,234.25"/>
    </edge>
    <edge id=":08_1_0" function="internal">
        <lane id=":08_1_0_0" index="0" speed="3.65" length="4.67" shape="563.72,184.04 565.08,183.56 565.96,183.72 566.36,184.52 566.28,185.96"/>
    </edge>
    <edge id=":08_2_0" function="internal">
        <lane id=":08_2_0_0" index="0" speed="30.00" length="8.51" shape="504.92,193.79 507.16,194.95 509.06,195.06 510.95,195.19 513.16,196.39"/>
        <lane id=":08_2_0_1" index="1" speed="30.00" length="8.51" shape="502.92,196.29 505.15,197.43 507.04,197.54 508.91,197.66 511.11,198.85"/>
        <lane id=":08_2_0_2" index="2" speed="30.00" length="8.51" shape="502.92,196.29 509.06,201.30"/>
    </edge>
    <edge id=":08_3_0" function="internal">
        <lane id=":08_3_0_0" index="0" speed="60.00" length="0.21" shape="514.05,271.60 514.00,271.67"/>
        <lane id=":08_3_0_1" index="1" speed="60.00" length="0.21" shape="511.49,269.68 511.39,269.81"/>
        <lane id=":08_3_0_2" index="2" speed="60.00" length="0.21" shape="508.93,267.76 508.79,267.95"/>
        <lane id=":08_3_0_3" index="3" speed="60.00" length="0.21" shape="506.37,265.84 506.19,266.09"/>
    </edge>
    <edge id=":08_3_4" function="internal">
        <lane id=":08_3_4_0" index="0" speed="60.00" length="0.54" shape="493.17,256.79 493.57,256.24"/>
        <lane id=":08_3_4_1" index="1" speed="60.00" length="0.54" shape="495.77,258.65 496.13,258.16"/>
        <lane id=":08_3_4_2" index="2" speed="60.00" length="0.54" shape="498.37,260.51 498.69,260.08"/>
        <lane id=":08_3_4_3" index="3" speed="60.00" length="0.54" shape="500.98,262.37 501.25,262.00"/>
        <lane id=":08_3_4_4" index="4" speed="60.00" length="0.54" shape="503.58,264.23 503.81,263.92"/>
    </edge>

    <edge id="01_02_01_02" from="01_1" to="02_2" priority="-1" length="290.00">
        <lane id="01_02_01_02_0" index="0" speed="50.00" length="290.00" shape="78.32,195.50 318.01,95.63"/>
        <lane id="01_02_01_02_1" index="1" speed="50.00" length="290.00" shape="79.55,198.45 319.24,98.58"/>
    </edge>
    <edge id="01_02_02_01" from="02_2" to="01_1" priority="-1" length="290.00">
        <lane id="01_02_02_01_0" index="0" speed="50.00" length="290.00" shape="320.47,101.54 80.78,201.41"/>
    </edge>
    <edge id="01_05_01_05" from="01_0" to="05_2" priority="-1" length="150.00">
        <lane id="01_05_01_05_0" index="0" speed="40.00" length="150.00" shape="79.16,256.15 177.89,331.38"/>
    </edge>
    <edge id="01_05_05_01" from="05_2" to="01_0" priority="-1" length="150.00">
        <lane id="01_05_05_01_0" index="0" speed="40.00" length="150.00" shape="175.95,333.93 77.22,258.70"/>
    </edge>
    <edge id="01_0i" from="01_0" to="01" priority="-1" length="50.00">
        <lane id="01_0i_0" index="0" speed="40.00" length="50.00" shape="68.92,256.44 39.27,234.20"/>
        <lane id="01_0i_1" index="1" speed="40.00" length="50.00" shape="70.84,253.88 41.19,231.64"/>
    </edge>
    <edge id="01_0o" from="01" to="01_0" priority="-1" length="50.00">
        <lane id="01_0o_0" index="0" speed="40.00" length="50.00" shape="43.11,229.08 72.76,251.32"/>
    </edge>
    <edge id="01_1i" from="01_1" to="01" priority="-1" length="50.00">
        <lane id="01_1i_0" index="0" speed="50.00" length="50.00" shape="80.62,201.49 43.59,222.06"/>
    </edge>
    <edge id="01_1o" from="01" to="01_1" priority="-1" length="50.00">
        <lane id="01_1o_0" index="0" speed="50.00" length="50.00" shape="40.48,216.46 77.51,195.89"/>
        <lane id="01_1o_1" index="1" speed="50.00" length="50.00" shape="42.03,219.26 79.07,198.69"/>
    </edge>
    <edge id="01_2i" from="01_2" to="01" priority="-1" length="40.00">
        <lane id="01_2i_0" index="0" speed="50.00" length="40.00" shape="-1.89,235.59 26.03,223.62"/>
        <lane id="01_2i_1" index="1" speed="50.00" length="40.00" shape="-0.63,238.53 27.29,226.56"/>
    </edge>
    <edge id="01_2o" from="01" to="01_2" priority="-1" length="40.00">
        <lane id="01_2o_0" index="0" speed="50.00" length="40.00" shape="29.81,232.45 1.89,244.41"/>
        <lane id="01_2o_1" index="1" speed="50.00" length="40.00" shape="28.55,229.50 0.63,241.47"/>
    </edge>
    <edge id="02_03_02_03" from="02_0" to="03_1" priority="-1" length="15.00">
        <lane id="02_03_02_03_0" index="0" speed="30.00" length="15.00" shape="372.95,95.92 401.52,105.45"/>
        <lane id="02_03_02_03_1" index="1" speed="30.00" length="15.00" shape="371.94,98.96 400.51,108.48"/>
    </edge>
    <edge id="02_04_02_04" from="02_1" to="04_2" priority="-1" length="80.00">
        <lane id="02_04_02_04_0" index="0" speed="50.00" length="80.00" shape="378.06,65.61 489.76,11.99"/>
        <lane id="02_04_02_04_1" index="1" speed="50.00" length="80.00" shape="379.44,68.49 491.15,14.87"/>
    </edge>
    <edge id="02_04_04_02" from="04_2" to="02_1" priority="-1" length="80.00">
        <lane id="02_04_04_02_0" index="0" speed="50.00" length="80.00" shape="492.53,17.76 380.83,71.38"/>
    </edge>
    <edge id="02_0o" from="02" to="02_0" priority="-1" length="20.00">
        <lane id="02_0o_0" index="0" speed="30.00" length="20.00" shape="364.69,87.90 372.33,95.54"/>
        <lane id="02_0o_1" index="1" speed="30.00" length="20.00" shape="362.42,90.16 370.06,97.80"/>
    </edge>
    <edge id="02_1i" from="02_1" to="02" priority="-1" length="40.00">
        <lane id="02_1i_0" index="0" speed="50.00" length="40.00" shape="380.70,71.45 365.60,80.51"/>
    </edge>
    <edge id="02_1o" from="02" to="02_1" priority="-1" length="40.00">
        <lane id="02_1o_0" index="0" speed="50.00" length="40.00" shape="362.30,75.02 377.40,65.96"/>