<edges>
   <edge id="01_0i" from="01_0" to="01" numLanes="2" speed="40.000000" length="50.000000"/>
   <edge id="01_0o" from="01" to="01_0" numLanes="1" speed="40.000000" length="50.000000"/>

   <edge id="01_1i" from="01_1" to="01" numLanes="1" speed="50.000000" length="50.000000"/>
   <edge id="01_1o" from="01" to="01_1" numLanes="2" speed="50.000000" length="50.000000"/>

   <edge id="01_2i" from="01_2" to="01" numLanes="2" speed="50.000000" length="40.000000"/>
   <edge id="01_2o" from="01" to="01_2" numLanes="2" speed="50.000000" length="40.000000"/>

   <edge id="02_0o" from="02" to="02_0" numLanes="2" speed="30.000000" length="20.000000"/>

   <edge id="02_1i" from="02_1" to="02" numLanes="1" speed="50.000000" length="40.000000"/>
   <edge id="02_1o" from="02" to="02_1" numLanes="2" speed="50.000000" length="40.000000"/>

   <edge id="02_2i" from="02_2" to="02" numLanes="2" speed="50.000000" length="40.000000"/>
   <edge id="02_2o" from="02" to="02_2" numLanes="1" speed="50.000000" length="40.000000"/>

   <edge id="03_0o" from="03" to="03_0" numLanes="2" speed="30.000000" length="20.000000"/>

   <edge id="03_1i" from="03_1" to="03" numLanes="2" speed="30.000000" length="20.000000"/>

   <edge id="03_2i" from="03_2" to="03" numLanes="1" speed="30.000000" length="40.000000"/>

   <edge id="04_0i" from="04_0" to="04" numLanes="2" speed="30.000000" length="30.000000"/>
   <edge id="04_0o" from="04" to="04_0" numLanes="1" speed="30.000000" length="30.000000"/>

   <edge id="04_1i" from="04_1" to="04" numLanes="2" speed="50.000000" length="40.000000"/>
   <edge id="04_1o" from="04" to="04_1" numLanes="2" speed="50.000000" length="40.000000"/>

   <edge id="04_2i" from="04_2" to="04" numLanes="2" speed="50.000000" length="40.000000"/>
   <edge id="04_2o" from="04" to="04_2" numLanes="2" speed="50.000000" length="40.000000"/>

   <edge id="05_0i" from="05_0" to="05" numLanes="2" speed="30.000000" length="25.000000"/>
   <edge id="05_0o" from="05" to="05_0" numLanes="1" speed="30.000000" length="25.000000"/>

   <edge id="05_1o" from="05" to="05_1" numLanes="1" speed="30.000000" length="50.000000"/>

   <edge id="05_2i" from="05_2" to="05" numLanes="2" speed="30.000000" length="50.000000"/>
   <edge id="05_2o" from="05" to="05_2" numLanes="1" speed="30.000000" length="50.000000"/>

   <edge id="05_3i" from="05_3" to="05" numLanes="1" speed="30.000000" length="50.000000"/>
   <edge id="05_3o" from="05" to="05_3" numLanes="1" speed="30.000000" length="50.000000"/>

   <edge id="06_0i" from="06_0" to="06" numLanes="4" speed="50.000000" length="30.000000"/>
   <edge id="06_0o" from="06" to="06_0" numLanes="2" speed="50.000000" length="30.000000"/>

   <edge id="06_1i" from="06_1" to="06" numLanes="5" speed="60.000000" length="50.000000"/>
   <edge id="06_1o" from="06" to="06_1" numLanes="4" speed="60.000000" length="50.000000"/>

   <edge id="06_2i" from="06_2" to="06" numLanes="2" speed="40.000000" length="35.000000"/>
   <edge id="06_2o" from="06" to="06_2" numLanes="1" speed="40.000000" length="35.000000"/>

   <edge id="06_3i" from="06_3" to="06" numLanes="6" speed="60.000000" length="50.000000"/>
   <edge id="06_3o" from="06" to="06_3" numLanes="6" speed="60.000000" length="50.000000"/>

   <edge id="07_0i" from="07_0" to="07" numLanes="4" speed="40.000000" length="15.000000"/>

   <edge id="07_1i" from="07_1" to="07" numLanes="4" speed="60.000000" length="35.000000"/>
   <edge id="07_1o" from="07" to="07_1" numLanes="5" speed="60.000000" length="35.000000"/>

   <edge id="07_2i" from="07_2" to="07" numLanes="5" speed="60.000000" length="30.000000"/>
   <edge id="07_2o" from="07" to="07_2" numLanes="4" speed="60.000000" length="30.000000"/>

   <edge id="08_0o" from="08" to="08_0" numLanes="2" speed="40.000000" length="30.000000"/>

   <edge id="08_1i" from="08_1" to="08" numLanes="4" speed="60.000000" length="50.000000"/>
   <edge id="08_1o" from="08" to="08_1" numLanes="5" speed="60.000000" length="50.000000"/>

   <edge id="08_2i" from="08_2" to="08" numLanes="3" speed="30.000000" length="40.000000"/>

   <edge id="08_3i" from="08_3" to="08" numLanes="5" speed="60.000000" length="50.000000"/>
   <edge id="08_3o" from="08" to="08_3" numLanes="4" speed="60.000000" length="50.000000"/>

   <edge id="09_0i" from="09_0" to="09" numLanes="1" speed="30.000000" length="30.000000"/>
   <edge id="09_0o" from="09" to="09_0" numLanes="1" speed="30.000000" length="30.000000"/>

   <edge id="09_1i" from="09_1" to="09" numLanes="4" speed="60.000000" length="40.000000"/>
   <edge id="09_1o" from="09" to="09_1" numLanes="5" speed="60.000000" length="40.000000"/>

   <edge id="09_2i" from="09_2" to="09" numLanes="1" speed="30.000000" length="30.000000"/>
   <edge id="09_2o" from="09" to="09_2" numLanes="2" speed="30.000000" length="30.000000"/>

   <edge id="09_3i" from="09_3" to="09" numLanes="5" speed="60.000000" length="40.000000"/>
   <edge id="09_3o" from="09" to="09_3" numLanes="5" speed="60.000000" length="40.000000"/>

   <edge id="10_0i" from="10_0" to="10" numLanes="4" speed="50.000000" length="70.000000"/>
   <edge id="10_0o" from="10" to="10_0" numLanes="3" speed="50.000000" length="70.000000"/>

   <edge id="10_1i" from="10_1" to="10" numLanes="2" speed="50.000000" length="70.000000"/>
   <edge id="10_1o" from="10" to="10_1" numLanes="2" speed="50.000000" length="70.000000"/>

   <edge id="10_2i" from="10_2" to="10" numLanes="5" speed="50.000000" length="80.000000"/>
   <edge id="10_2o" from="10" to="10_2" numLanes="4" speed="50.000000" length="80.000000"/>

   <edge id="10_3i" from="10_3" to="10" numLanes="3" speed="50.000000" length="80.000000"/>
   <edge id="10_3o" from="10" to="10_3" numLanes="1" speed="50.000000" length="80.000000"/>

   <edge id="10_4i" from="10_4" to="10" numLanes="4" speed="60.000000" length="65.000000"/>
   <edge id="10_4o" from="10" to="10_4" numLanes="4" speed="60.000000" length="65.000000"/>

   <edge id="01_02_01_02" from="01_1" to="02_2" numLanes="2" speed="50.000000" length="290.000000"/>
   <edge id="01_02_02_01" from="02_2" to="01_1" numLanes="1" speed="50.000000" length="290.000000"/>

   <edge id="01_05_01_05" from="01_0" to="05_2" numLanes="1" speed="40.000000" length="150.000000"/>
   <edge id="01_05_05_01" from="05_2" to="01_0" numLanes="1" speed="40.000000" length="150.000000"/>

   <edge id="02_03_02_03" from="02_0" to="03_1" numLanes="2" speed="30.000000" length="15.000000"/>

   <edge id="02_04_02_04" from="02_1" to="04_2" numLanes="2" speed="50.000000" length="80.000000"/>
   <edge id="02_04_04_02" from="04_2" to="02_1" numLanes="1" speed="50.000000" length="80.000000"/>

   <edge id="03_08_03_08" from="03_0" to="08_2" numLanes="2" speed="30.000000" length="65.000000"/>

   <edge id="04_09_04_09" from="04_0" to="09_2" numLanes="2" speed="30.000000" length="40.000000"/>
   <edge id="04_09_09_04" from="09_2" to="04_0" numLanes="1" speed="30.000000" length="40.000000"/>

   <edge id="04_10_04_10" from="04_1" to="10_3" numLanes="2" speed="50.000000" length="75.000000"/>
   <edge id="04_10_10_04" from="10_3" to="04_1" numLanes="2" speed="50.000000" length="75.000000"/>

   <edge id="05_03_05_03" from="05_1" to="03_2" numLanes="1" speed="30.000000" length="210.000000"/>

   <edge id="05_06_05_06" from="05_0" to="06_2" numLanes="1" speed="40.000000" length="40.000000"/>
   <edge id="05_06_06_05" from="06_2" to="05_0" numLanes="1" speed="40.000000" length="40.000000"/>

   <edge id="06_07_06_07" from="06_1" to="07_2" numLanes="4" speed="60.000000" length="60.000000"/>
   <edge id="06_07_07_06" from="07_2" to="06_1" numLanes="5" speed="60.000000" length="60.000000"/>

   <edge id="07_08_07_08" from="07_1" to="08_3" numLanes="5" speed="60.000000" length="45.000000"/>
   <edge id="07_08_08_07" from="08_3" to="07_1" numLanes="4" speed="60.000000" length="45.000000"/>

   <edge id="08_09_08_09" from="08_1" to="09_3" numLanes="5" speed="60.000000" length="35.000000"/>
   <edge id="08_09_09_08" from="09_3" to="08_1" numLanes="5" speed="60.000000" length="35.000000"/>

   <edge id="09_10_09_10" from="09_1" to="10_4" numLanes="5" speed="60.000000" length="40.000000"/>
   <edge id="09_10_10_09" from="10_4" to="09_1" numLanes="4" speed="60.000000" length="40.000000"/>

</edges>