<tlLogics>
   <tlLogic id="01" type="static" programID="program_1" offset="0">
      <phase duration="30" state="srsGGr"/>
      <phase duration="4" state="srsyyy"/>
      <phase duration="10" state="srsrrG"/>
      <phase duration="4" state="srsrry"/>
      <phase duration="10" state="sGsrrr"/>
      <phase duration="4" state="sysrrr"/>
   </tlLogic>
   <tlLogic id="02" type="static" programID="program_2" offset="0">
      <phase duration="30" state="sGGr"/>
      <phase duration="4" state="syyy"/>
      <phase duration="10" state="srrG"/>
      <phase duration="4" state="srry"/>
   </tlLogic>
   <tlLogic id="03" type="static" programID="program_3" offset="0">
      <phase duration="20" state="GGr"/>
      <phase duration="4" state="yyr"/>
      <phase duration="10" state="rrG"/>
      <phase duration="4" state="rry"/>
   </tlLogic>
   <tlLogic id="04" type="static" programID="program_4" offset="0">
      <phase duration="25" state="srsGGG"/>
      <phase duration="4" state="srsGyy"/>
      <phase duration="15" state="sGsGrr"/>
      <phase duration="4" state="sGsGyy"/>
   </tlLogic>
   <tlLogic id="05" type="static" programID="program_5" offset="0">
      <phase duration="20" state="sGGrrsrr"/>
      <phase duration="4" state="syyrrsrr"/>
      <phase duration="20" state="srrGGsrr"/>
      <phase duration="4" state="srryysrr"/>
      <phase duration="20" state="srrrrsGG"/>
      <phase duration="4" state="srrrrsyy"/>
   </tlLogic>
   <tlLogic id="06" type="static" programID="program_6" offset="0">
      <phase duration="40" state="srrrsGGGGrsrrsGGGGrr"/>
      <phase duration="4" state="srrrsyyyyysrrsyyyyyy"/>
      <phase duration="15" state="srrrsrrrrGsrrsrrrrGG"/>
      <phase duration="4" state="srrrsrrrrysrrsrrrryy"/>
      <phase duration="25" state="sGrrsrrrrrsGrsrrrrrr"/>
      <phase duration="4" state="syyysrrrrrsyysrrrrrr"/>
      <phase duration="10" state="srGGsrrrrrsrGsrrrrrr"/>
      <phase duration="4" state="sryysrrrrrsrysrrrrrr"/>
   </tlLogic>
   <tlLogic id="08" type="static" programID="program_8" offset="0">
      <phase duration="40" state="sGGGGsrrrGGGGr"/>
      <phase duration="4" state="syyyysrrryyyyy"/>
      <phase duration="15" state="srrrrsrrrrrrrG"/>
      <phase duration="4" state="srrrrsrrrrrrry"/>
      <phase duration="25" state="srrrrsGGGrrrrr"/>
      <phase duration="4" state="srrrrsyyyrrrrr"/>
   </tlLogic>
   <tlLogic id="10" type="static" programID="program_10" offset="0">
      <phase duration="40" state="srrrsrsGGrrsrrssrr"/>
      <phase duration="4" state="srrrsrsyyyysrrssyy"/>
      <phase duration="25" state="srrrsrsrrGGsrrssGG"/>
      <phase duration="4" state="srrrsrsrryysrrssyy"/>
      <phase duration="25" state="sGGGsrsrrrrsrrssrr"/>
      <phase duration="4" state="syyysrsrrrrsrrssrr"/>
      <phase duration="25" state="srrrsGsrrrrsrrssrr"/>
      <phase duration="4" state="srrrsysrrrrsrrssrr"/>
      <phase duration="25" state="srrrsrsrrrrsGGssrr"/>
      <phase duration="4" state="srrrsrsrrrrsyyssrr"/>
   </tlLogic>
</tlLogics>