<?xml version="1.0" encoding="UTF-8"?>

<!-- generated on 2023-08-17 12:22:11 by Eclipse SUMO netconvert Version 1.15.0
<configuration xmlns:xsi="http://www.w3.org/2001/XMLSchema-instance" xsi:noNamespaceSchemaLocation="http://sumo.dlr.de/xsd/netconvertConfiguration.xsd">

    <input>
        <node-files value="seoul.nod.xml"/>
        <edge-files value="seoul.edg.xml"/>
        <connection-files value="seoul.con.xml"/>
        <tllogic-files value="seoul.tll.xml"/>
    </input>

    <output>
        <output-file value="seoul.net.xml"/>
    </output>

    <report>
        <verbose value="true"/>
    </report>

</configuration>
-->

<net version="1.9" junctionCornerDetail="5" limitTurnSpeed="5.50" xmlns:xsi="http://www.w3.org/2001/XMLSchema-instance" xsi:noNamespaceSchemaLocation="http://sumo.dlr.de/xsd/net_file.xsd">

    <location netOffset="35.00,70.00" convBoundary="0.00,0.00,795.00,610.00" origBoundary="-35.00,-70.00,760.00,540.00" projParameter="!"/>

    <edge id=":01_0" function="internal">
        <lane id=":01_0_0" index="0" speed="8.66" length="10.09" shape="39.27,329.20 36.83,327.71 34.44,326.91 32.10,326.83 29.81,327.45"/>
    </edge>
    <edge id=":01_1" function="internal">
        <lane id=":01_1_0" index="0" speed="7.46" length="16.13" shape="41.19,326.64 37.82,323.30 36.84,320.13 38.24,317.11 42.03,314.26"/>
    </edge>
    <edge id=":01_2" function="internal">
        <lane id=":01_2_0" index="0" speed="5.79" length="9.15" shape="43.59,317.06 41.44,318.68 40.64,320.39 41.20,322.19 43.11,324.08"/>
    </edge>
    <edge id=":01_3" function="internal">
        <lane id=":01_3_0" index="0" speed="50.00" length="16.79" shape="43.59,317.06 40.48,318.78 37.32,320.45 33.54,322.29 28.55,324.50"/>
    </edge>
    <edge id=":01_4" function="internal">
        <lane id=":01_4_0" index="0" speed="50.00" length="16.14" shape="26.03,318.62 30.42,316.71 33.39,315.32 36.29,313.79 40.48,311.46"/>
    </edge>
    <edge id=":01_5" function="internal">
        <lane id=":01_5_0" index="0" speed="11.04" length="16.81" shape="27.29,321.56 31.25,320.45 35.21,320.49 39.16,321.70 43.11,324.08"/>
    </edge>
    <edge id=":01_0_0" function="internal">
        <lane id=":01_0_0_0" index="0" speed="40.00" length="8.39" shape="77.22,353.70 74.96,352.61 73.08,352.56 71.19,352.52 68.92,351.44"/>
        <lane id=":01_0_0_1" index="1" speed="40.00" length="8.39" shape="77.22,353.70 70.84,348.88"/>
    </edge>
    <edge id=":01_0_2" function="internal">
        <lane id=":01_0_2_0" index="0" speed="40.00" length="8.02" shape="72.76,346.32 79.16,351.15"/>
    </edge>
    <edge id=":01_1_0" function="internal">
        <lane id=":01_1_0_0" index="0" speed="50.00" length="0.18" shape="80.78,296.41 80.73,296.43 80.70,296.44 80.67,296.46 80.62,296.49"/>
    </edge>
    <edge id=":01_1_1" function="internal">
        <lane id=":01_1_1_0" index="0" speed="50.00" length="0.72" shape="77.51,290.89 77.75,290.76 77.91,290.68 78.07,290.60 78.32,290.50"/>
        <lane id=":01_1_1_1" index="1" speed="50.00" length="0.72" shape="79.07,293.69 79.21,293.61 79.30,293.56 79.40,293.52 79.55,293.45"/>
    </edge>
    <edge id=":01_2_0" function="internal">
        <lane id=":01_2_0_0" index="0" speed="3.65" length="4.67" shape="0.63,336.47 -0.79,336.21 -1.47,335.63 -1.42,334.74 -0.63,333.53"/>
    </edge>
    <edge id=":02_0" function="internal">
        <lane id=":02_0_0" index="0" speed="6.04" length="9.07" shape="365.60,175.51 363.59,177.14 362.77,178.91 363.14,180.83 364.69,182.90"/>
    </edge>
    <edge id=":02_1" function="internal">
        <lane id=":02_1_0" index="0" speed="50.00" length="16.03" shape="365.60,175.51 362.24,177.52 358.69,179.59 355.08,181.54 351.55,183.22"/>
    </edge>
    <edge id=":02_2" function="internal">
        <lane id=":02_2_0" index="0" speed="50.00" length="15.18" shape="349.03,177.33 353.13,175.48 355.84,174.02 358.47,172.39 362.30,170.02"/>
    </edge>
    <edge id=":02_3" function="internal">
        <lane id=":02_3_0" index="0" speed="9.29" length="13.83" shape="350.29,180.28 352.95,179.77 355.86,180.41 359.02,182.21 362.42,185.16"/>
    </edge>
    <edge id=":02_0_0" function="internal">
        <lane id=":02_0_0_0" index="0" speed="30.00" length="1.49" shape="372.33,190.54 372.48,190.69 372.61,190.78 372.74,190.85 372.95,190.92"/>
        <lane id=":02_0_0_1" index="1" speed="8.09" length="1.49" shape="370.06,192.80 370.54,193.26 370.90,193.54 371.31,193.74 371.94,193.96"/>
    </edge>
    <edge id=":02_1_0" function="internal">
        <lane id=":02_1_0_0" index="0" speed="50.00" length="0.15" shape="380.83,166.38 380.79,166.40 380.76,166.41 380.73,166.43 380.70,166.45"/>
    </edge>
    <edge id=":02_1_1" function="internal">
        <lane id=":02_1_1_0" index="0" speed="50.00" length="0.59" shape="377.40,160.96 377.59,160.85 377.72,160.77 377.86,160.70 378.06,160.61"/>
        <lane id=":02_1_1_1" index="1" speed="50.00" length="0.59" shape="379.05,163.70 379.16,163.64 379.24,163.59 379.32,163.55 379.44,163.49"/>
    </edge>
    <edge id=":02_2_0" function="internal">
        <lane id=":02_2_0_0" index="0" speed="50.00" length="0.33" shape="320.77,196.41 320.47,196.54"/>
    </edge>
    <edge id=":02_2_1" function="internal">
        <lane id=":02_2_1_0" index="0" speed="50.00" length="0.28" shape="318.01,190.63 318.25,190.53"/>
        <lane id=":02_2_1_1" index="1" speed="50.00" length="0.28" shape="319.24,193.58 319.51,193.47"/>
    </edge>
    <edge id=":03_0" function="internal">
        <lane id=":03_0_0" index="0" speed="30.00" length="11.21" shape="413.29,211.51 421.22,219.43"/>
        <lane id=":03_0_1" index="1" speed="30.00" length="11.21" shape="411.03,213.77 418.96,221.70"/>
    </edge>
    <edge id=":03_2" function="internal">
        <lane id=":03_2_0" index="0" speed="6.32" length="9.04" shape="411.21,222.05 413.08,220.37 414.99,219.75 416.95,220.19 418.96,221.70"/>
    </edge>
    <edge id=":03_0_0" function="internal">
        <lane id=":03_0_0_0" index="0" speed="30.00" length="0.35" shape="433.14,231.36 433.18,231.39 433.21,231.42 433.23,231.44 433.28,231.47"/>
        <lane id=":03_0_0_1" index="1" speed="30.00" length="0.35" shape="430.88,233.62 430.99,233.73 431.07,233.80 431.15,233.87 431.28,233.97"/>
    </edge>
    <edge id=":03_1_0" function="internal">
        <lane id=":03_1_0_0" index="0" speed="8.09" length="1.49" shape="401.52,200.45 402.14,200.66 402.56,200.86 402.92,201.14 403.39,201.61"/>
        <lane id=":03_1_0_1" index="1" speed="30.00" length="1.49" shape="400.51,203.48 400.71,203.55 400.85,203.62 400.97,203.71 401.13,203.87"/>
    </edge>
    <edge id=":03_2_0" function="internal">
        <lane id=":03_2_0_0" index="0" speed="30.00" length="0.20" shape="388.73,249.02 388.86,248.87"/>
    </edge>
    <edge id=":04_0" function="internal">
        <lane id=":04_0_0" index="0" speed="13.70" length="17.89" shape="554.53,113.77 549.45,109.98 545.16,107.35 541.66,105.89 538.94,105.59"/>
    </edge>
    <edge id=":04_1" function="internal">
        <lane id=":04_1_0" index="0" speed="8.21" length="23.86" shape="556.53,111.27 550.90,105.71 549.50,101.41 552.32,98.37 559.38,96.59"/>
    </edge>
    <edge id=":04_2" function="internal">
        <lane id=":04_2_0" index="0" speed="5.48" length="9.70" shape="560.17,102.94 557.17,103.67 555.90,104.88 556.35,106.58 558.53,108.77"/>
    </edge>
    <edge id=":04_3" function="internal">
        <lane id=":04_3_0" index="0" speed="50.00" length="21.39" shape="559.78,99.77 538.55,102.42"/>
    </edge>
    <edge id=":04_4" function="internal">
        <lane id=":04_4_0" index="0" speed="50.00" length="21.39" shape="537.75,96.07 558.98,93.41"/>
    </edge>
    <edge id=":04_5" function="internal">
        <lane id=":04_5_0" index="0" speed="15.47" length="22.96" shape="538.15,99.24 542.17,99.50 546.91,101.17 552.36,104.26 558.53,108.77"/>
    </edge>
    <edge id=":04_0_0" function="internal">
        <lane id=":04_0_0_0" index="0" speed="8.27" length="4.78" shape="570.87,128.28 570.51,127.19 570.15,126.47 569.62,125.87 568.73,125.13"/>
        <lane id=":04_0_0_1" index="1" speed="9.85" length="4.78" shape="570.87,128.28 570.73,122.63"/>
    </edge>
    <edge id=":04_0_2" function="internal">
        <lane id=":04_0_2_0" index="0" speed="11.48" length="7.72" shape="572.73,120.14 574.49,121.60 575.55,122.80 576.27,124.23 576.99,126.40"/>
        <lane id=":04_0_2_1" index="1" speed="11.40" length="7.72" shape="572.73,120.14 573.97,121.73 574.00,123.28 573.69,125.06 573.93,127.34"/>
    </edge>
    <edge id=":04_1_0" function="internal">
        <lane id=":04_1_0_0" index="0" speed="50.00" length="1.16" shape="586.54,99.56 586.15,99.66 585.88,99.72 585.61,99.76 585.21,99.81"/>
        <lane id=":04_1_0_1" index="1" speed="50.00" length="1.16" shape="585.76,96.46 585.48,96.53 585.29,96.57 585.10,96.60 584.81,96.64"/>
    </edge>
    <edge id=":04_1_2" function="internal">
        <lane id=":04_1_2_0" index="0" speed="50.00" length="0.39" shape="584.02,90.29 584.08,90.28 584.12,90.27 584.16,90.26 584.21,90.25"/>
        <lane id=":04_1_2_1" index="1" speed="50.00" length="0.39" shape="584.42,93.46 584.59,93.44 584.70,93.42 584.82,93.40 584.99,93.35"/>
    </edge>
    <edge id=":04_2_0" function="internal">
        <lane id=":04_2_0_0" index="0" speed="27.65" length="8.48" shape="500.60,110.39 498.11,110.72 496.42,111.09 494.81,111.69 492.53,112.76"/>
    </edge>
    <edge id=":04_2_1" function="internal">
        <lane id=":04_2_1_0" index="0" speed="32.39" length="11.16" shape="489.76,106.99 492.65,105.09 494.39,103.26 496.23,101.77 499.41,100.86"/>
        <lane id=":04_2_1_1" index="1" speed="31.00" length="11.16" shape="491.15,109.87 493.76,108.10 495.30,106.35 496.93,104.90 499.81,104.04"/>
    </edge>
    <edge id=":05_0" function="internal">
        <lane id=":05_0_0" index="0" speed="6.51" length="9.03" shape="217.88,468.16 215.71,466.97 213.68,466.76 211.79,467.53 210.04,469.28"/>
    </edge>
    <edge id=":05_1" function="internal">
        <lane id=":05_1_0" index="0" speed="30.00" length="16.71" shape="217.88,468.16 213.94,464.52 211.47,461.14 209.54,458.09 207.20,455.42"/>
    </edge>
    <edge id=":05_2" function="internal">
        <lane id=":05_2_0" index="0" speed="9.61" length="18.08" shape="219.80,465.60 217.17,462.65 216.10,458.91 216.60,454.39 218.67,449.09"/>
    </edge>
    <edge id=":05_3" function="internal">
        <lane id=":05_3_0" index="0" speed="30.00" length="16.27" shape="211.37,450.56 215.02,454.32 217.35,457.66 219.28,460.57 221.72,463.04"/>
    </edge>
    <edge id=":05_4" function="internal">
        <lane id=":05_4_0" index="0" speed="9.24" length="18.31" shape="209.29,452.99 212.29,456.55 213.42,460.45 212.67,464.69 210.04,469.28"/>
    </edge>
    <edge id=":05_5" function="internal">
        <lane id=":05_5_0" index="0" speed="7.98" length="13.40" shape="207.48,467.36 209.47,463.94 210.08,460.82 209.33,457.98 207.20,455.42"/>
    </edge>
    <edge id=":05_6" function="internal">
        <lane id=":05_6_0" index="0" speed="30.00" length="21.44" shape="207.48,467.36 210.18,463.45 213.36,458.40 216.40,453.27 218.67,449.09"/>
    </edge>
    <edge id=":05_7" function="internal">
        <lane id=":05_7_0" index="0" speed="8.67" length="16.85" shape="207.48,467.36 211.07,463.49 214.64,461.48 218.19,461.33 221.72,463.04"/>
    </edge>
    <edge id=":05_0_0" function="internal">
        <lane id=":05_0_0_0" index="0" speed="35.00" length="8.88" shape="246.22,490.54 244.60,488.68 243.42,487.46 242.13,486.36 240.16,484.87"/>
        <lane id=":05_0_0_1" index="1" speed="35.00" length="8.88" shape="246.22,490.54 244.82,488.17 244.41,486.15 243.86,484.27 242.08,482.31"/>
    </edge>
    <edge id=":05_0_2" function="internal">
        <lane id=":05_0_2_0" index="0" speed="35.00" length="10.07" shape="244.00,479.75 245.94,481.83 246.60,483.81 247.12,485.94 248.65,488.46"/>
    </edge>
    <edge id=":05_1_0" function="internal">
        <lane id=":05_1_0_0" index="0" speed="30.00" length="0.44" shape="233.57,419.28 233.63,419.17 233.67,419.09 233.73,419.02 233.82,418.92"/>
    </edge>
    <edge id=":05_2_0" function="internal">
        <lane id=":05_2_0_0" index="0" speed="35.00" length="7.69" shape="181.93,433.76 175.95,428.93"/>
    </edge>
    <edge id=":05_2_1" function="internal">
        <lane id=":05_2_1_0" index="0" speed="35.00" length="8.33" shape="177.89,426.38 180.16,427.48 182.05,427.57 183.92,427.70 186.10,428.90"/>
        <lane id=":05_2_1_1" index="1" speed="35.00" length="8.33" shape="177.89,426.38 184.02,431.33"/>
    </edge>
    <edge id=":05_3_0" function="internal">
        <lane id=":05_3_0_0" index="0" speed="3.65" length="4.67" shape="186.28,500.96 184.92,501.44 184.04,501.28 183.64,500.48 183.72,499.04"/>
    </edge>
    <edge id=":06_0" function="internal">
        <lane id=":06_0_0" index="0" speed="6.44" length="9.03" shape="336.44,593.49 334.30,592.23 332.28,591.98 330.40,592.73 328.64,594.48"/>
    </edge>
    <edge id=":06_1" function="internal">
        <lane id=":06_1_0" index="0" speed="45.00" length="47.27" shape="338.44,591.00 327.36,580.78 317.93,570.25 310.71,561.45 306.26,556.47"/>
    </edge>
    <edge id=":06_2" function="internal">
        <lane id=":06_2_0" index="0" speed="12.20" length="33.57" shape="340.44,588.50 332.47,580.86 328.13,573.59 327.43,566.70 330.36,560.19"/>
        <lane id=":06_2_1" index="1" speed="12.31" length="34.20" shape="342.44,586.00 333.22,577.62 327.70,570.21 325.90,563.76 327.80,558.27"/>
    </edge>
    <edge id=":06_4" function="internal">
        <lane id=":06_4_0" index="0" speed="7.81" length="13.13" shape="343.16,569.79 341.85,572.50 341.96,575.28 343.49,578.11 346.43,581.00"/>
    </edge>
    <edge id=":06_5" function="internal">
        <lane id=":06_5_0" index="0" speed="60.00" length="28.47" shape="343.16,569.79 326.08,592.56"/>
        <lane id=":06_5_1" index="1" speed="60.00" length="28.47" shape="340.60,567.87 323.52,590.64"/>
        <lane id=":06_5_2" index="2" speed="60.00" length="28.47" shape="338.04,565.95 320.96,588.72"/>
        <lane id=":06_5_3" index="3" speed="60.00" length="28.47" shape="335.48,564.03 318.40,586.80"/>
    </edge>
    <edge id=":06_9" function="internal">
        <lane id=":06_9_0" index="0" speed="11.29" length="30.46" shape="332.92,562.11 328.38,565.58 322.43,565.80 315.05,562.76 306.26,556.47"/>
    </edge>
    <edge id=":06_10" function="internal">
        <lane id=":06_10_0" index="0" speed="7.83" length="14.09" shape="310.36,551.55 314.47,554.51 317.89,555.98 320.63,555.95 322.68,554.43"/>
    </edge>
    <edge id=":06_11" function="internal">
        <lane id=":06_11_0" index="0" speed="45.00" length="46.71" shape="310.36,551.55 344.44,583.50"/>
    </edge>
    <edge id=":06_12" function="internal">
        <lane id=":06_12_0" index="0" speed="12.67" length="35.69" shape="308.31,554.01 315.86,561.84 319.63,569.60 319.62,577.28 315.84,584.88"/>
    </edge>
    <edge id=":06_13" function="internal">
        <lane id=":06_13_0" index="0" speed="9.36" length="19.04" shape="300.48,573.36 304.60,567.30 306.93,562.46 307.49,558.85 306.26,556.47"/>
    </edge>
    <edge id=":06_14" function="internal">
        <lane id=":06_14_0" index="0" speed="60.00" length="29.41" shape="300.48,573.36 306.41,567.12 311.58,563.90 316.75,560.67 322.68,554.43"/>
        <lane id=":06_14_1" index="1" speed="60.00" length="29.41" shape="303.04,575.28 308.97,569.04 314.14,565.82 319.31,562.59 325.24,556.35"/>
        <lane id=":06_14_2" index="2" speed="60.00" length="29.41" shape="305.60,577.20 311.53,570.96 316.70,567.74 321.87,564.51 327.80,558.27"/>
        <lane id=":06_14_3" index="3" speed="60.00" length="29.41" shape="308.16,579.12 314.09,572.88 319.26,569.66 324.43,566.43 330.36,560.19"/>
    </edge>
    <edge id=":06_18" function="internal">
        <lane id=":06_18_0" index="0" speed="12.72" length="38.37" shape="310.72,581.04 317.13,575.45 324.89,574.00 333.99,576.68 344.44,583.50"/>
        <lane id=":06_18_1" index="1" speed="12.68" length="38.10" shape="313.28,582.96 320.36,576.16 328.24,573.57 336.94,575.18 346.43,581.00"/>
    </edge>
    <edge id=":06_0_0" function="internal">
        <lane id=":06_0_0_0" index="0" speed="3.65" length="4.67" shape="351.00,588.75 351.44,590.12 351.25,591.00 350.44,591.37 349.00,591.25"/>
    </edge>
    <edge id=":06_1_0" function="internal">
        <lane id=":06_1_0_0" index="0" speed="60.00" length="2.58" shape="365.33,540.36 365.21,540.45 365.13,540.52 365.06,540.60 364.96,540.72"/>
        <lane id=":06_1_0_1" index="1" speed="12.11" length="2.58" shape="363.51,537.73 363.14,538.00 362.89,538.20 362.68,538.43 362.40,538.80"/>
        <lane id=":06_1_0_2" index="2" speed="15.54" length="2.58" shape="361.69,535.10 361.06,535.54 360.66,535.88 360.31,536.27 359.84,536.88"/>
        <lane id=":06_1_0_3" index="3" speed="18.34" length="2.58" shape="359.87,532.47 358.99,533.09 358.43,533.56 357.93,534.11 357.28,534.96"/>
        <lane id=":06_1_0_4" index="4" speed="20.76" length="2.58" shape="358.05,529.84 356.92,530.63 356.19,531.24 355.56,531.94 354.72,533.04"/>
    </edge>
    <edge id=":06_1_5" function="internal">
        <lane id=":06_1_5_0" index="0" speed="28.46" length="7.23" shape="344.48,525.36 346.06,523.29 347.26,521.96 348.64,520.81 350.76,519.31"/>
        <lane id=":06_1_5_1" index="1" speed="26.75" length="7.23" shape="347.04,527.28 348.44,525.45 349.49,524.28 350.71,523.27 352.58,521.94"/>
        <lane id=":06_1_5_2" index="2" speed="24.91" length="7.23" shape="349.60,529.20 350.81,527.62 351.72,526.60 352.78,525.72 354.40,524.58"/>
        <lane id=":06_1_5_3" index="3" speed="22.93" length="7.23" shape="352.16,531.12 353.18,529.78 353.96,528.92 354.85,528.18 356.22,527.21"/>
    </edge>
    <edge id=":06_2_0" function="internal">
        <lane id=":06_2_0_0" index="0" speed="40.00" length="6.99" shape="296.51,548.34 294.92,547.01 293.88,546.04 292.91,545.00 291.55,543.43"/>
    </edge>
    <edge id=":06_2_1" function="internal">
        <lane id=":06_2_1_0" index="0" speed="40.00" length="6.82" shape="293.98,541.35 295.59,542.48 297.14,542.54 298.77,542.53 300.61,543.43"/>
        <lane id=":06_2_1_1" index="1" speed="40.00" length="6.82" shape="293.98,541.35 295.23,542.80 296.13,543.76 297.10,544.65 298.56,545.88"/>
    </edge>
    <edge id=":06_3_0" function="internal">
        <lane id=":06_3_0_0" index="0" speed="3.65" length="4.67" shape="296.28,610.96 294.92,611.44 294.04,611.28 293.64,610.48 293.72,609.04"/>
    </edge>
    <edge id=":07_0" function="internal">
        <lane id=":07_0_0" index="0" speed="6.29" length="9.04" shape="442.83,479.88 440.63,478.67 438.63,478.51 436.83,479.41 435.24,481.36"/>
        <lane id=":07_0_1" index="1" speed="7.83" length="14.60" shape="444.75,477.32 441.19,475.37 437.96,475.12 435.06,476.57 432.50,479.72"/>
        <lane id=":07_0_2" index="2" speed="9.11" length="20.16" shape="446.67,474.76 441.76,472.07 437.30,471.72 433.30,473.72 429.76,478.07"/>
        <lane id=":07_0_3" index="3" speed="10.22" length="25.71" shape="448.59,472.20 442.32,468.77 436.63,468.33 431.53,470.88 427.01,476.42"/>
    </edge>
    <edge id=":07_4" function="internal">
        <lane id=":07_4_0" index="0" speed="60.00" length="21.50" shape="446.33,463.20 435.24,481.36"/>
        <lane id=":07_4_1" index="1" speed="60.00" length="21.50" shape="443.66,461.43 432.50,479.72"/>
        <lane id=":07_4_2" index="2" speed="60.00" length="21.50" shape="441.00,459.65 429.76,478.07"/>
        <lane id=":07_4_3" index="3" speed="60.00" length="21.50" shape="438.34,457.88 427.01,476.42"/>
    </edge>
    <edge id=":07_8" function="internal">
        <lane id=":07_8_0" index="0" speed="60.00" length="22.19" shape="413.29,468.19 425.03,449.00"/>
        <lane id=":07_8_1" index="1" speed="60.00" length="22.19" shape="416.04,469.84 427.69,450.78"/>
        <lane id=":07_8_2" index="2" speed="60.00" length="22.19" shape="418.78,471.48 430.35,452.55"/>
        <lane id=":07_8_3" index="3" speed="60.00" length="22.19" shape="421.52,473.13 433.01,454.33"/>
        <lane id=":07_8_4" index="4" speed="60.00" length="22.19" shape="424.27,474.78 435.68,456.10"/>
    </edge>
    <edge id=":07_1_0" function="internal">
        <lane id=":07_1_0_0" index="0" speed="60.00" length="0.27" shape="464.23,436.34 464.17,436.44"/>
        <lane id=":07_1_0_1" index="1" speed="60.00" length="0.27" shape="461.63,434.48 461.51,434.66"/>
        <lane id=":07_1_0_2" index="2" speed="60.00" length="0.27" shape="459.03,432.62 458.84,432.89"/>
        <lane id=":07_1_0_3" index="3" speed="60.00" length="0.27" shape="456.42,430.76 456.18,431.11"/>
    </edge>
    <edge id=":07_1_4" function="internal">
        <lane id=":07_1_4_0" index="0" speed="60.00" length="0.73" shape="442.87,422.24 443.40,421.46"/>
        <lane id=":07_1_4_1" index="1" speed="60.00" length="0.73" shape="445.53,424.01 446.01,423.32"/>
        <lane id=":07_1_4_2" index="2" speed="60.00" length="0.73" shape="448.19,425.79 448.61,425.18"/>
        <lane id=":07_1_4_3" index="3" speed="60.00" length="0.73" shape="450.86,427.56 451.21,427.04"/>
        <lane id=":07_1_4_4" index="4" speed="60.00" length="0.73" shape="453.52,429.34 453.82,428.90"/>
    </edge>
    <edge id=":07_2_0" function="internal">
        <lane id=":07_2_0_0" index="0" speed="25.77" length="17.04" shape="429.44,491.03 426.40,495.95 423.96,499.11 420.96,501.75 416.25,505.11"/>
        <lane id=":07_2_0_1" index="1" speed="24.86" length="17.04" shape="426.70,489.38 423.87,493.96 421.60,496.90 418.81,499.36 414.43,502.48"/>
        <lane id=":07_2_0_2" index="2" speed="23.91" length="17.04" shape="423.95,487.74 421.34,491.97 419.24,494.69 416.66,496.96 412.61,499.84"/>
        <lane id=":07_2_0_3" index="3" speed="22.93" length="17.04" shape="421.21,486.09 418.81,489.98 416.88,492.48 414.51,494.57 410.79,497.21"/>
        <lane id=":07_2_0_4" index="4" speed="22.74" length="17.04" shape="421.21,486.09 418.54,489.52 415.95,491.14 412.93,492.37 408.97,494.58"/>
    </edge>
    <edge id=":07_2_5" function="internal">
        <lane id=":07_2_5_0" index="0" speed="17.17" length="11.31" shape="401.68,484.06 403.76,482.58 405.08,481.42 406.15,480.02 407.49,477.86"/>
        <lane id=":07_2_5_1" index="1" speed="18.47" length="11.31" shape="403.50,486.69 405.91,484.98 407.44,483.63 408.68,482.02 410.23,479.51"/>
        <lane id=":07_2_5_2" index="2" speed="19.68" length="11.31" shape="405.33,489.32 408.06,487.38 409.80,485.84 411.22,484.01 412.98,481.15"/>
        <lane id=":07_2_5_3" index="3" speed="20.82" length="11.31" shape="407.15,491.95 410.21,489.77 412.16,488.05 413.75,486.00 415.72,482.80"/>
        <lane id=":07_2_5_4" index="4" speed="21.74" length="11.31" shape="407.15,491.95 410.78,489.97 413.59,488.93 416.01,487.53 418.47,484.45"/>
    </edge>
    <edge id=":08_0" function="internal">
        <lane id=":08_0_0" index="0" speed="7.76" length="12.97" shape="552.62,315.17 550.28,318.89 549.25,322.06 549.53,324.68 551.12,326.75"/>
    </edge>
    <edge id=":08_1" function="internal">
        <lane id=":08_1_0" index="0" speed="60.00" length="18.83" shape="552.62,315.17 541.32,330.24"/>
        <lane id=":08_1_1" index="1" speed="60.00" length="18.83" shape="550.06,313.25 538.76,328.32"/>
        <lane id=":08_1_2" index="2" speed="60.00" length="18.83" shape="547.50,311.33 536.20,326.40"/>
        <lane id=":08_1_3" index="3" speed="60.00" length="18.83" shape="544.94,309.41 533.64,324.48"/>
    </edge>
    <edge id=":08_5" function="internal">
        <lane id=":08_5_0" index="0" speed="6.40" length="9.04" shape="524.36,300.72 526.49,302.03 528.49,302.31 530.37,301.58 532.14,299.81"/>
    </edge>
    <edge id=":08_6" function="internal">
        <lane id=":08_6_0" index="0" speed="35.00" length="37.36" shape="524.36,300.72 551.12,326.75"/>
        <lane id=":08_6_1" index="1" speed="35.00" length="37.36" shape="522.31,303.18 549.12,329.25"/>
    </edge>
    <edge id=":08_8" function="internal">
        <lane id=":08_8_0" index="0" speed="10.52" length="24.30" shape="520.27,305.64 527.45,312.11 532.07,317.40 534.14,321.53 533.64,324.48"/>
    </edge>
    <edge id=":08_9" function="internal">
        <lane id=":08_9_0" index="0" speed="60.00" length="19.19" shape="520.84,314.88 524.62,310.68 527.77,308.31 530.92,305.94 534.70,301.73"/>
        <lane id=":08_9_1" index="1" speed="60.00" length="19.19" shape="523.40,316.80 527.18,312.60 530.33,310.23 533.48,307.86 537.26,303.65"/>
        <lane id=":08_9_2" index="2" speed="60.00" length="19.19" shape="525.96,318.72 529.74,314.52 532.89,312.15 536.04,309.78 539.82,305.57"/>
        <lane id=":08_9_3" index="3" speed="60.00" length="19.19" shape="528.52,320.64 532.30,316.44 535.45,314.07 538.60,311.70 542.38,307.49"/>
    </edge>
    <edge id=":08_13" function="internal">
        <lane id=":08_13_0" index="0" speed="9.44" length="20.66" shape="531.08,322.56 533.57,321.16 537.41,321.81 542.59,324.51 549.12,329.25"/>
    </edge>
    <edge id=":08_1_0" function="internal">
        <lane id=":08_1_0_0" index="0" speed="60.00" length="8.81" shape="578.92,285.44 577.04,287.11 575.24,287.68 573.44,288.25 571.56,289.92"/>
        <lane id=":08_1_0_1" index="1" speed="60.00" length="8.81" shape="576.36,283.52 574.48,285.19 572.68,285.76 570.88,286.33 569.00,288.00"/>
        <lane id=":08_1_0_2" index="2" speed="60.00" length="8.81" shape="573.80,281.60 571.92,283.27 570.12,283.84 568.32,284.41 566.44,286.08"/>
        <lane id=":08_1_0_3" index="3" speed="60.00" length="8.81" shape="571.24,279.68 569.36,281.35 567.56,281.92 565.76,282.49 563.88,284.16"/>
    </edge>
    <edge id=":08_1_4" function="internal">
        <lane id=":08_1_4_0" index="0" speed="60.00" length="8.00" shape="551.08,274.56 555.88,268.16"/>
        <lane id=":08_1_4_1" index="1" speed="60.00" length="8.00" shape="553.64,276.48 558.44,270.08"/>
        <lane id=":08_1_4_2" index="2" speed="60.00" length="8.00" shape="556.20,278.40 561.00,272.00"/>
        <lane id=":08_1_4_3" index="3" speed="60.00" length="8.00" shape="558.76,280.32 563.56,273.92"/>
        <lane id=":08_1_4_4" index="4" speed="60.00" length="8.00" shape="561.32,282.24 566.12,275.84"/>
    </edge>
    <edge id=":08_2_0" function="internal">
        <lane id=":08_2_0_0" index="0" speed="30.00" length="8.51" shape="504.92,288.79 507.16,289.95 509.06,290.06 510.95,290.19 513.16,291.39"/>
        <lane id=":08_2_0_1" index="1" speed="30.00" length="8.51" shape="502.92,291.29 505.15,292.43 507.04,292.54 508.91,292.66 511.11,293.85"/>
        <lane id=":08_2_0_2" index="2" speed="30.00" length="8.51" shape="502.92,291.29 509.06,296.30"/>
    </edge>
    <edge id=":08_3_0" function="internal">
        <lane id=":08_3_0_0" index="0" speed="60.00" length="0.21" shape="514.05,366.60 514.00,366.67"/>
        <lane id=":08_3_0_1" index="1" speed="60.00" length="0.21" shape="511.49,364.68 511.39,364.81"/>
        <lane id=":08_3_0_2" index="2" speed="60.00" length="0.21" shape="508.93,362.76 508.79,362.95"/>
        <lane id=":08_3_0_3" index="3" speed="60.00" length="0.21" shape="506.37,360.84 506.19,361.09"/>
    </edge>
    <edge id=":08_3_4" function="internal">
        <lane id=":08_3_4_0" index="0" speed="60.00" length="0.54" shape="493.17,351.79 493.57,351.24"/>
        <lane id=":08_3_4_1" index="1" speed="60.00" length="0.54" shape="495.77,353.65 496.13,353.16"/>
        <lane id=":08_3_4_2" index="2" speed="60.00" length="0.54" shape="498.37,355.51 498.69,355.08"/>
        <lane id=":08_3_4_3" index="3" speed="60.00" length="0.54" shape="500.98,357.37 501.25,357.00"/>
        <lane id=":08_3_4_4" index="4" speed="60.00" length="0.54" shape="503.58,359.23 503.81,358.92"/>
    </edge>
    <edge id=":09_0" function="internal">
        <lane id=":09_0_0" index="0" speed="7.46" length="12.02" shape="634.57,223.71 632.30,222.62 629.85,222.84 627.22,224.37 624.40,227.21"/>
    </edge>
    <edge id=":09_1" function="internal">
        <lane id=":09_1_0" index="0" speed="7.24" length="11.61" shape="633.38,211.44 632.23,213.67 632.37,216.05 633.82,218.56 636.57,221.21"/>
    </edge>
    <edge id=":09_2" function="internal">
        <lane id=":09_2_0" index="0" speed="60.00" length="18.23" shape="630.92,209.39 627.88,213.82 626.43,217.28 624.98,220.74 621.95,225.16"/>
        <lane id=":09_2_1" index="1" speed="60.00" length="18.23" shape="628.46,207.34 625.43,211.77 623.97,215.23 622.52,218.69 619.49,223.11"/>
        <lane id=":09_2_2" index="2" speed="60.00" length="18.23" shape="626.00,205.30 622.97,209.72 621.52,213.18 620.06,216.64 617.03,221.06"/>
    </edge>
    <edge id=":09_5" function="internal">
        <lane id=":09_5_0" index="0" speed="6.57" length="9.24" shape="605.66,195.97 607.78,197.25 609.82,197.53 611.80,196.80 613.71,195.05"/>
    </edge>
    <edge id=":09_6" function="internal">
        <lane id=":09_6_0" index="0" speed="6.51" length="9.03" shape="602.28,208.77 603.58,206.66 603.89,204.65 603.22,202.72 601.56,200.88"/>
        <lane id=":09_6_1" index="1" speed="8.00" length="14.19" shape="604.74,210.82 606.78,207.51 607.27,204.34 606.22,201.31 603.61,198.43"/>
    </edge>
    <edge id=":09_8" function="internal">
        <lane id=":09_8_0" index="0" speed="60.00" length="18.23" shape="607.20,212.87 610.23,208.44 611.68,204.98 613.13,201.52 616.17,197.10"/>
        <lane id=":09_8_1" index="1" speed="60.00" length="18.23" shape="609.65,214.92 612.69,210.49 614.14,207.03 615.59,203.57 618.63,199.15"/>
        <lane id=":09_8_2" index="2" speed="60.00" length="18.23" shape="612.11,216.97 615.15,212.54 616.60,209.08 618.05,205.62 621.09,201.20"/>
    </edge>
    <edge id=":09_0_0" function="internal">
        <lane id=":09_0_0_0" index="0" speed="3.65" length="4.67" shape="646.00,228.75 646.44,230.12 646.25,231.00 645.44,231.37 644.00,231.25"/>
    </edge>
    <edge id=":09_1_0" function="internal">