<configuration>
   <input>
      <node-files value="seoul.nod.xml"/>
      <edge-files value="seoul.edg.xml"/>
      <connection-files value="seoul.con.xml"/>
      <tllogic-files value="seoul.tll.xml"/>
   </input>

   <output>
      <output-file value="seoul.net.xml"/>
   </output>

   <report>
      <verbose value="true"/>
   </report>
</configuration>