<connections>
   <connection from="01_0i" to="01_2o" fromLane="0" toLane="0"/>
   <connection from="01_0i" to="01_1o" fromLane="1" toLane="1"/>
   <connection from="01_1i" to="01_0o" fromLane="0" toLane="0"/>
   <connection from="01_1i" to="01_2o" fromLane="0" toLane="1"/>
   <connection from="01_2i" to="01_1o" fromLane="0" toLane="0"/>
   <connection from="01_2i" to="01_0o" fromLane="1" toLane="0"/>
   
   <connection from="02_1i" to="02_0o" fromLane="0" toLane="0"/>
   <connection from="02_1i" to="02_2o" fromLane="0" toLane="0"/>
   <connection from="02_2i" to="02_1o" fromLane="0" toLane="0"/>
   <connection from="02_2i" to="02_0o" fromLane="1" toLane="1"/>
   
   <connection from="03_1i" to="03_0o" fromLane="0" toLane="0"/>
   <connection from="03_1i" to="03_0o" fromLane="1" toLane="1"/>
   <connection from="03_2i" to="03_0o" fromLane="0" toLane="1"/>
   
   <connection from="04_0i" to="04_2o" fromLane="0" toLane="0"/>
   <connection from="04_0i" to="04_1o" fromLane="1" toLane="1"/>
   <connection from="04_1i" to="04_0o" fromLane="0" toLane="0"/>
   <connection from="04_1i" to="04_2o" fromLane="1" toLane="1"/>
   <connection from="04_2i" to="04_1o" fromLane="0" toLane="0"/>
   <connection from="04_2i" to="04_0o" fromLane="1" toLane="0"/>
   
   <connection from="05_0i" to="05_3o" fromLane="0" toLane="0"/>
   <connection from="05_0i" to="05_2o" fromLane="0" toLane="0"/>
   <connection from="05_0i" to="05_1o" fromLane="1" toLane="0"/>
   <connection from="05_2i" to="05_0o" fromLane="0" toLane="0"/>
   <connection from="05_2i" to="05_3o" fromLane="1" toLane="0"/>
   <connection from="05_3i" to="05_2o" fromLane="0" toLane="0"/>
   <connection from="05_3i" to="05_1o" fromLane="0" toLane="0"/>
   <connection from="05_3i" to="05_0o" fromLane="0" toLane="0"/>
   
   <connection from="06_0i" to="06_3o" fromLane="0" toLane="0"/>
   <connection from="06_0i" to="06_2o" fromLane="1" toLane="0"/>
   <connection from="06_0i" to="06_1o" fromLane="2" toLane="3"/>
   <connection from="06_0i" to="06_1o" fromLane="3" toLane="2"/>
   <connection from="06_1i" to="06_0o" fromLane="0" toLane="0"/>
   <connection from="06_1i" to="06_3o" fromLane="0" toLane="1"/>
   <connection from="06_1i" to="06_3o" fromLane="1" toLane="2"/>
   <connection from="06_1i" to="06_3o" fromLane="2" toLane="3"/>
   <connection from="06_1i" to="06_3o" fromLane="3" toLane="4"/>
   <connection from="06_1i" to="06_2o" fromLane="4" toLane="0"/>
   <connection from="06_2i" to="06_1o" fromLane="0" toLane="0"/>
   <connection from="06_2i" to="06_0o" fromLane="0" toLane="1"/>
   <connection from="06_2i" to="06_3o" fromLane="1" toLane="5"/>
   <connection from="06_3i" to="06_2o" fromLane="0" toLane="0"/>
   <connection from="06_3i" to="06_1o" fromLane="0" toLane="0"/>
   <connection from="06_3i" to="06_1o" fromLane="1" toLane="1"/>
   <connection from="06_3i" to="06_1o" fromLane="2" toLane="2"/>
   <connection from="06_3i" to="06_1o" fromLane="3" toLane="3"/>
   <connection from="06_3i" to="06_0o" fromLane="4" toLane="1"/>
   <connection from="06_3i" to="06_0o" fromLane="5" toLane="0"/>
   
   <connection from="07_0i" to="07_2o" fromLane="0" toLane="0"/>
   <connection from="07_0i" to="07_2o" fromLane="1" toLane="1"/>
   <connection from="07_0i" to="07_2o" fromLane="2" toLane="2"/>
   <connection from="07_0i" to="07_2o" fromLane="3" toLane="3"/>
   <connection from="07_1i" to="07_2o" fromLane="0" toLane="0"/>
   <connection from="07_1i" to="07_2o" fromLane="1" toLane="1"/>
   <connection from="07_1i" to="07_2o" fromLane="2" toLane="2"/>
   <connection from="07_1i" to="07_2o" fromLane="3" toLane="3"/>
   <connection from="07_2i" to="07_1o" fromLane="0" toLane="0"/>
   <connection from="07_2i" to="07_1o" fromLane="1" toLane="1"/>
   <connection from="07_2i" to="07_1o" fromLane="2" toLane="2"/>
   <connection from="07_2i" to="07_1o" fromLane="3" toLane="3"/>
   <connection from="07_2i" to="07_1o" fromLane="4" toLane="4"/>
   
   <connection from="08_1i" to="08_0o" fromLane="0" toLane="0"/>
   <connection from="08_1i" to="08_3o" fromLane="0" toLane="0"/>
   <connection from="08_1i" to="08_3o" fromLane="1" toLane="1"/>
   <connection from="08_1i" to="08_3o" fromLane="2" toLane="2"/>
   <connection from="08_1i" to="08_3o" fromLane="3" toLane="3"/>
   <connection from="08_2i" to="08_1o" fromLane="0" toLane="0"/>
   <connection from="08_2i" to="08_0o" fromLane="0" toLane="0"/>
   <connection from="08_2i" to="08_0o" fromLane="1" toLane="1"/>
   <connection from="08_2i" to="08_3o" fromLane="2" toLane="3"/>
   <connection from="08_3i" to="08_1o" fromLane="0" toLane="1"/>
   <connection from="08_3i" to="08_1o" fromLane="1" toLane="2"/>
   <connection from="08_3i" to="08_1o" fromLane="2" toLane="3"/>
   <connection from="08_3i" to="08_1o" fromLane="3" toLane="4"/>
   <connection from="08_3i" to="08_0o" fromLane="4" toLane="1"/>
   
   <connection from="09_0i" to="09_3o" fromLane="0" toLane="0"/>
   <connection from="09_1i" to="09_0o" fromLane="0" toLane="0"/>
   <connection from="09_1i" to="09_3o" fromLane="1" toLane="1"/>
   <connection from="09_1i" to="09_3o" fromLane="2" toLane="2"/>
   <connection from="09_1i" to="09_3o" fromLane="3" toLane="3"/>
   <connection from="09_2i" to="09_1o" fromLane="0" toLane="0"/>
   <connection from="09_3i" to="09_2o" fromLane="0" toLane="0"/>
   <connection from="09_3i" to="09_2o" fromLane="1" toLane="1"/>
   <connection from="09_3i" to="09_1o" fromLane="2" toLane="1"/>
   <connection from="09_3i" to="09_1o" fromLane="3" toLane="2"/>
   <connection from="09_3i" to="09_1o" fromLane="4" toLane="3"/>
   
   <connection from="10_0i" to="10_4o" fromLane="0" toLane="0"/>
   <connection from="10_0i" to="10_2o" fromLane="1" toLane="1"/>
   <connection from="10_0i" to="10_2o" fromLane="2" toLane="2"/>
   <connection from="10_0i" to="10_2o" fromLane="3" toLane="3"/>
   <connection from="10_1i" to="10_0o" fromLane="0" toLane="0"/>
   <connection from="10_1i" to="10_3o" fromLane="1" toLane="0"/>
   <connection from="10_2i" to="10_1o" fromLane="0" toLane="0"/>
   <connection from="10_2i" to="10_0o" fromLane="1" toLane="1"/>
   <connection from="10_2i" to="10_0o" fromLane="2" toLane="2"/>
   <connection from="10_2i" to="10_4o" fromLane="3" toLane="3"/>
   <connection from="10_2i" to="10_4o" fromLane="4" toLane="2"/>
   <connection from="10_3i" to="10_2o" fromLane="0" toLane="0"/>
   <connection from="10_3i" to="10_1o" fromLane="1" toLane="0"/>
   <connection from="10_3i" to="10_1o" fromLane="2" toLane="1"/>
   <connection from="10_4i" to="10_2o" fromLane="0" toLane="0"/>
   <connection from="10_4i" to="10_2o" fromLane="1" toLane="1"/>
   <connection from="10_4i" to="10_0o" fromLane="2" toLane="2"/>
   <connection from="10_4i" to="10_0o" fromLane="3" toLane="1"/>
   
</connections>
