<nodes>
   <node id="0" x="0.000000" y="0.000000" type="traffic_light_right_on_red" tl="0"/>

   <node id="0_0" x="0.000000" y="50.000000" type="priority"/>
   <node id="0_1" x="50.000000" y="0.000000" type="priority"/>
   <node id="0_2" x="0.000000" y="-50.000000" type="priority"/>
   <node id="0_3" x="-50.000000" y="0.000000" type="priority"/>

   <node id="1" x="0.000000" y="500.000000" type="priority"/>
   <node id="2" x="500.000000" y="0.000000" type="priority"/>
   <node id="3" x="0.000000" y="-500.000000" type="priority"/>
   <node id="4" x="-500.000000" y="0.000000" type="priority"/>

   <node id="51" x="0.000000" y="510.000000" type="priority"/>
   <node id="52" x="510.000000" y="0.000000" type="priority"/>
   <node id="53" x="0.000000" y="-510.000000" type="priority"/>
   <node id="54" x="-510.000000" y="0.000000" type="priority"/>
</nodes>