<nodes>
   <node id="0" x="0.0" y="0.0" type="traffic_light" tl="None"/>
   <node id="0_1" x="0.0" y="300.0" type="priority"/>
   <node id="0_2" x="300.0" y="0.0" type="priority"/>
   <node id="0_3" x="0.0" y="-300.0" type="priority"/>
   <node id="0_4" x="-300.0" y="0.0" type="priority"/>

   <node id="0_51" x="0.0" y="310.0" type="priority"/>
   <node id="0_52" x="310.0" y="0.0" type="priority"/>
   <node id="0_53" x="0.0" y="-310.0" type="priority"/>
   <node id="0_54" x="-310.0" y="0.0" type="priority"/>
</nodes>