<?xml version="1.0" encoding="UTF-8"?>

<!-- generated on 2023-01-10 23:11:50 by Eclipse SUMO netconvert Version 1.15.0
<configuration xmlns:xsi="http://www.w3.org/2001/XMLSchema-instance" xsi:noNamespaceSchemaLocation="http://sumo.dlr.de/xsd/netconvertConfiguration.xsd">

    <input>
        <node-files value="files/network/node/hello.nod.xml"/>
        <edge-files value="files/network/edge/hello.edg.xml"/>
    </input>

    <output>
        <output-file value="files/network/hello.net.xml"/>
    </output>

</configuration>
-->

<net version="1.9" junctionCornerDetail="5" limitTurnSpeed="5.50" xmlns:xsi="http://www.w3.org/2001/XMLSchema-instance" xsi:noNamespaceSchemaLocation="http://sumo.dlr.de/xsd/net_file.xsd">

    <location netOffset="251.00,0.00" convBoundary="0.00,0.00,502.00,0.00" origBoundary="-251.00,0.00,251.00,0.00" projParameter="!"/>

    <edge id=":3_0" function="internal">
        <lane id=":3_0_0" index="0" speed="13.89" length="0.10" shape="251.00,-1.60 251.00,-1.60"/>
    </edge>
    <edge id=":4_0" function="internal">
        <lane id=":4_0_0" index="0" speed="13.89" length="0.10" shape="251.00,1.60 251.00,1.60"/>
    </edge>

    <edge id="1to3" from="1" to="3" priority="-1">
        <lane id="1to3_0" index="0" speed="13.89" length="250.00" shape="1.00,-1.60 251.00,-1.60"/>
    </edge>
    <edge id="3to5" from="3" to="5" priority="-1">
        <lane id="3to5_0" index="0" speed="13.89" length="251.00" shape="251.00,-1.60 502.00,-1.60"/>
    </edge>
    <edge id="4to2" from="4" to="2" priority="-1">
        <lane id="4to2_0" index="0" speed="13.89" length="251.00" shape="251.00,1.60 0.00,1.60"/>
    </edge>
    <edge id="6to4" from="6" to="4" priority="-1">
        <lane id="6to4_0" index="0" speed="13.89" length="250.00" shape="501.00,1.60 251.00,1.60"/>
    </edge>

    <junction id="1" type="dead_end" x="1.00" y="0.00" incLanes="" intLanes="" shape="1.00,0.00 1.00,-3.20"/>
    <junction id="2" type="dead_end" x="0.00" y="0.00" incLanes="4to2_0" intLanes="" shape="0.00,3.20 0.00,0.00"/>
    <junction id="3" type="priority" x="251.00" y="0.00" incLanes="1to3_0" intLanes=":3_0_0" shape="251.00,0.00 251.00,-3.20 251.00,0.00">
        <request index="0" response="0" foes="0" cont="0"/>
    </junction>
    <junction id="4" type="priority" x="251.00" y="0.00" incLanes="6to4_0" intLanes=":4_0_0" shape="251.00,3.20 251.00,0.00 251.00,3.20">
        <request index="0" response="0" foes="0" cont="0"/>
    </junction>
    <junction id="5" type="dead_end" x="502.00" y="0.00" incLanes="3to5_0" intLanes="" shape="502.00,-3.20 502.00,0.00"/>
    <junction id="6" type="dead_end" x="501.00" y="0.00" incLanes="" intLanes="" shape="501.00,0.00 501.00,3.20"/>

    <connection from="1to3" to="3to5" fromLane="0" toLane="0" via=":3_0_0" dir="s" state="M"/>
    <connection from="6to4" to="4to2" fromLane="0" toLane="0" via=":4_0_0" dir="s" state="M"/>

    <connection from=":3_0" to="3to5" fromLane="0" toLane="0" dir="s" state="M"/>
    <connection from=":4_0" to="4to2" fromLane="0" toLane="0" dir="s" state="M"/>

</net>
