<?xml version="1.0" encoding="UTF-8"?>

<!-- generated on 2023-01-11 10:53:56 by Eclipse SUMO netconvert Version 1.15.0
<configuration xmlns:xsi="http://www.w3.org/2001/XMLSchema-instance" xsi:noNamespaceSchemaLocation="http://sumo.dlr.de/xsd/netconvertConfiguration.xsd">

    <input>
        <node-files value="files/network/node/test.nod.xml"/>
        <edge-files value="files/network/edge/test.edg.xml"/>
        <connection-files value="files/network/connection/test.con.xml"/>
        <tllogic-files value="files/network/tllogic/test.tll.xml"/>
    </input>

    <output>
        <output-file value="files/network/test.net.xml"/>
    </output>

    <report>
        <verbose value="true"/>
    </report>

</configuration>
-->

<net version="1.9" junctionCornerDetail="5" limitTurnSpeed="5.50" xmlns:xsi="http://www.w3.org/2001/XMLSchema-instance" xsi:noNamespaceSchemaLocation="http://sumo.dlr.de/xsd/net_file.xsd">

    <location netOffset="510.00,510.00" convBoundary="0.00,0.00,1020.00,1020.00" origBoundary="-510.00,-510.00,510.00,510.00" projParameter="!"/>

    <edge id=":0_0" function="internal">
        <lane id=":0_0_0" index="0" speed="6.51" length="9.03" shape="505.20,520.40 504.85,517.95 503.80,516.20 502.05,515.15 499.60,514.80"/>
    </edge>
    <edge id=":0_1" function="internal">
        <lane id=":0_1_0" index="0" speed="15.28" length="20.80" shape="505.20,520.40 505.20,499.60"/>
        <lane id=":0_1_1" index="1" speed="15.28" length="20.80" shape="508.40,520.40 508.40,499.60"/>
    </edge>
    <edge id=":0_3" function="internal">
        <lane id=":0_3_0" index="0" speed="9.26" length="19.35" shape="508.40,520.40 509.15,515.15 511.40,511.40 515.15,509.15 520.40,508.40"/>
    </edge>
    <edge id=":0_4" function="internal">
        <lane id=":0_4_0" index="0" speed="7.33" length="11.73" shape="520.40,511.60 517.95,512.15 516.20,513.80 515.15,516.55 514.80,520.40"/>
    </edge>
    <edge id=":0_5" function="internal">
        <lane id=":0_5_0" index="0" speed="15.28" length="20.80" shape="520.40,511.60 499.60,511.60"/>
    </edge>
    <edge id=":0_6" function="internal">
        <lane id=":0_6_0" index="0" speed="9.26" length="19.35" shape="520.40,511.60 515.15,510.85 511.40,508.60 509.15,504.85 508.40,499.60"/>
    </edge>
    <edge id=":0_7" function="internal">
        <lane id=":0_7_0" index="0" speed="7.33" length="11.73" shape="511.60,499.60 512.15,502.05 513.80,503.80 516.55,504.85 520.40,505.20"/>
    </edge>
    <edge id=":0_8" function="internal">
        <lane id=":0_8_0" index="0" speed="15.28" length="20.80" shape="511.60,499.60 511.60,520.40"/>
    </edge>
    <edge id=":0_9" function="internal">
        <lane id=":0_9_0" index="0" speed="9.26" length="19.35" shape="511.60,499.60 510.85,504.85 508.60,508.60 504.85,510.85 499.60,511.60"/>
    </edge>
    <edge id=":0_10" function="internal">
        <lane id=":0_10_0" index="0" speed="6.51" length="9.03" shape="499.60,505.20 502.05,504.85 503.80,503.80 504.85,502.05 505.20,499.60"/>
    </edge>
    <edge id=":0_11" function="internal">
        <lane id=":0_11_0" index="0" speed="15.28" length="20.80" shape="499.60,505.20 520.40,505.20"/>
        <lane id=":0_11_1" index="1" speed="15.28" length="20.80" shape="499.60,508.40 520.40,508.40"/>
    </edge>
    <edge id=":0_13" function="internal">
        <lane id=":0_13_0" index="0" speed="9.26" length="19.35" shape="499.60,508.40 504.85,509.15 508.60,511.40 510.85,515.15 511.60,520.40"/>
    </edge>
    <edge id=":1_0" function="internal">
        <lane id=":1_0_0" index="0" speed="15.28" length="8.40" shape="508.40,1014.00 507.90,1011.54 506.80,1010.00 505.70,1008.46 505.20,1006.00"/>
        <lane id=":1_0_1" index="1" speed="15.28" length="8.40" shape="508.40,1014.00 508.40,1006.00"/>
    </edge>
    <edge id=":1_2" function="internal">
        <lane id=":1_2_0" index="0" speed="15.28" length="8.81" shape="514.80,1006.00 514.30,1008.46 513.20,1010.00 512.10,1011.54 511.60,1014.00"/>
    </edge>
    <edge id=":2_0" function="internal">
        <lane id=":2_0_0" index="0" speed="15.28" length="8.00" shape="1014.00,511.60 1006.00,511.60"/>
    </edge>
    <edge id=":2_1" function="internal">
        <lane id=":2_1_0" index="0" speed="15.28" length="8.81" shape="1006.00,505.20 1008.46,505.70 1010.00,506.80 1011.54,507.90 1014.00,508.40"/>
    </edge>
    <edge id=":3_0" function="internal">
        <lane id=":3_0_0" index="0" speed="15.28" length="8.81" shape="505.20,14.00 505.70,11.54 506.80,10.00 507.90,8.46 508.40,6.00"/>
    </edge>
    <edge id=":3_1" function="internal">
        <lane id=":3_1_0" index="0" speed="15.28" length="8.00" shape="511.60,6.00 511.60,14.00"/>
    </edge>
    <edge id=":4_0" function="internal">
        <lane id=":4_0_0" index="0" speed="15.28" length="8.81" shape="14.00,514.80 11.54,514.30 10.00,513.20 8.46,512.10 6.00,511.60"/>
    </edge>
    <edge id=":4_1" function="internal">
        <lane id=":4_1_0" index="0" speed="15.28" length="8.40" shape="6.00,508.40 8.46,507.90 10.00,506.80 11.54,505.70 14.00,505.20"/>
        <lane id=":4_1_1" index="1" speed="15.28" length="8.40" shape="6.00,508.40 14.00,508.40"/>
    </edge>
    <edge id=":51_0" function="internal">
        <lane id=":51_0_0" index="0" speed="3.65" length="4.67" shape="511.60,1020.00 510.80,1021.20 510.00,1021.60 509.20,1021.20 508.40,1020.00"/>
    </edge>
    <edge id=":52_0" function="internal">
        <lane id=":52_0_0" index="0" speed="3.65" length="4.67" shape="1020.00,508.40 1021.20,509.20 1021.60,510.00 1021.20,510.80 1020.00,511.60"/>
    </edge>
    <edge id=":53_0" function="internal">
        <lane id=":53_0_0" index="0" speed="3.65" length="4.67" shape="508.40,0.00 509.20,-1.20 510.00,-1.60 510.80,-1.20 511.60,0.00"/>
    </edge>
    <edge id=":54_0" function="internal">
        <lane id=":54_0_0" index="0" speed="3.65" length="4.67" shape="0.00,511.60 -1.20,510.80 -1.60,510.00 -1.20,509.20 0.00,508.40"/>
    </edge>

    <edge id="1i" from="1" to="0" priority="78">
        <lane id="1i_0" index="0" speed="19.44" length="485.60" shape="505.20,1006.00 505.20,520.40"/>
        <lane id="1i_1" index="1" speed="19.44" length="485.60" shape="508.40,1006.00 508.40,520.40"/>
    </edge>
    <edge id="1o" from="0" to="1" priority="46">
        <lane id="1o_0" index="0" speed="11.11" length="485.60" shape="514.80,520.40 514.80,1006.00"/>
        <lane id="1o_1" index="1" speed="11.11" length="485.60" shape="511.60,520.40 511.60,1006.00"/>
    </edge>
    <edge id="2i" from="2" to="0" priority="78">
        <lane id="2i_0" index="0" speed="19.44" length="485.60" shape="1006.00,511.60 520.40,511.60"/>
    </edge>
    <edge id="2o" from="0" to="2" priority="46">
        <lane id="2o_0" index="0" speed="11.11" length="485.60" shape="520.40,505.20 1006.00,505.20"/>
        <lane id="2o_1" index="1" speed="11.11" length="485.60" shape="520.40,508.40 1006.00,508.40"/>
    </edge>
    <edge id="3i" from="3" to="0" priority="78">
        <lane id="3i_0" index="0" speed="19.44" length="485.60" shape="511.60,14.00 511.60,499.60"/>
    </edge>
    <edge id="3o" from="0" to="3" priority="46">
        <lane id="3o_0" index="0" speed="11.11" length="485.60" shape="505.20,499.60 505.20,14.00"/>
        <lane id="3o_1" index="1" speed="11.11" length="485.60" shape="508.40,499.60 508.40,14.00"/>
    </edge>
    <edge id="4i" from="4" to="0" priority="78">
        <lane id="4i_0" index="0" speed="19.44" length="485.60" shape="14.00,505.20 499.60,505.20"/>
        <lane id="4i_1" index="1" speed="19.44" length="485.60" shape="14.00,508.40 499.60,508.40"/>
    </edge>
    <edge id="4o" from="0" to="4" priority="46">
        <lane id="4o_0" index="0" speed="11.11" length="485.60" shape="499.60,514.80 14.00,514.80"/>
        <lane id="4o_1" index="1" speed="11.11" length="485.60" shape="499.60,511.60 14.00,511.60"/>
    </edge>
    <edge id="51i" from="1" to="51" priority="78">
        <lane id="51i_0" index="0" speed="19.44" length="6.00" shape="511.60,1014.00 511.60,1020.00"/>
    </edge>
    <edge id="51o" from="51" to="1" priority="46">
        <lane id="51o_0" index="0" speed="11.11" length="6.00" shape="508.40,1020.00 508.40,1014.00"/>
    </edge>
    <edge id="52i" from="2" to="52" priority="78">
        <lane id="52i_0" index="0" speed="19.44" length="6.00" shape="1014.00,508.40 1020.00,508.40"/>
    </edge>
    <edge id="52o" from="52" to="2" priority="46">
        <lane id="52o_0" index="0" speed="11.11" length="6.00" shape="1020.00,511.60 1014.00,511.60"/>
    </edge>
    <edge id="53i" from="3" to="53" priority="78">
        <lane id="53i_0" index="0" speed="19.44" length="6.00" shape="508.40,6.00 508.40,0.00"/>
    </edge>
    <edge id="53o" from="53" to="3" priority="46">
        <lane id="53o_0" index="0" speed="11.11" length="6.00" shape="511.60,0.00 511.60,6.00"/>
    </edge>
    <edge id="54i" from="4" to="54" priority="78">
        <lane id="54i_0" index="0" speed="19.44" length="6.00" shape="6.00,511.60 0.00,511.60"/>
    </edge>
    <edge id="54o" from="54" to="4" priority="46">
        <lane id="54o_0" index="0" speed="11.11" length="6.00" shape="0.00,508.40 6.00,508.40"/>
    </edge>

    <tlLogic id="0" type="static" programID="my_program" offset="0">
        <phase duration="33" state="sGGGsrrrsGGGsrrr"/>
        <phase duration="6"  state="syyysrrrsyyysrrr"/>
        <phase duration="33" state="srrrsGGGsrrrsrrr"/>
        <phase duration="6"  state="srrrsyyysrrrsrrr"/>
        <phase duration="33" state="srrrsrrrsrrrsGGG"/>
        <phase duration="6"  state="srrrsrrrsrrrsyyy"/>
    </tlLogic>

    <junction id="0" type="traffic_light_right_on_red" x="510.00" y="510.00" incLanes="1i_0 1i_1 2i_0 3i_0 4i_0 4i_1" intLanes=":0_0_0 :0_1_0 :0_1_1 :0_3_0 :0_4_0 :0_5_0 :0_6_0 :0_7_0 :0_8_0 :0_9_0 :0_10_0 :0_11_0 :0_11_1 :0_13_0" shape="503.60,520.40 516.40,520.40 516.51,518.20 516.84,516.40 517.40,515.00 518.18,514.00 519.18,513.40 520.40,513.20 520.40,503.60 518.20,503.49 516.40,503.16 515.00,502.60 514.00,501.82 513.40,500.82 513.20,499.60 503.60,499.60 503.16,501.82 502.60,502.60 501.82,503.16 500.82,503.49 499.60,503.60 499.60,516.40 501.82,516.84 502.60,517.40 503.16,518.18 503.49,519.18">
        <request index="0"  response="00001000100000" foes="00000000000000" cont="0"/>
        <request index="1"  response="00000000000000" foes="11111001100000" cont="0"/>
        <request index="2"  response="00000000000000" foes="11111001100000" cont="0"/>
        <request index="3"  response="00000100000000" foes="11100101100000" cont="0"/>
        <request index="4"  response="10000000000000" foes="00000000000000" cont="0"/>
        <request index="5"  response="00001100001110" foes="10001100001110" cont="0"/>
        <request index="6"  response="01101100001110" foes="01101100001110" cont="0"/>
        <request index="7"  response="00000000000000" foes="01100000000000" cont="0"/>
        <request index="8"  response="10100001101000" foes="11100001101000" cont="0"/>
        <request index="9"  response="00000000000110" foes="11100001100110" cont="0"/>
        <request index="10" response="00000000000110" foes="00000000000110" cont="0"/>
        <request index="11" response="00001110001110" foes="00001111001110" cont="0"/>
        <request index="12" response="00001111001110" foes="00001111001110" cont="0"/>
        <request index="13" response="00001100101110" foes="00001100101110" cont="0"/>
    </junction>
    <junction id="1" type="priority" x="510.00" y="1010.00" incLanes="51o_0 1o_0 1o_1" intLanes=":1_0_0 :1_0_1 :1_2_0" shape="506.80,1014.00 513.20,1014.00 514.03,1010.97 515.57,1009.03 516.16,1007.79 516.40,1006.00 503.60,1006.00 504.43,1009.03 505.97,1010.97 506.56,1012.21">
        <request index="0" response="000" foes="000" cont="0"/>
        <request index="1" response="000" foes="000" cont="0"/>
        <request index="2" response="000" foes="000" cont="0"/>
    </junction>
    <junction id="2" type="priority" x="1010.00" y="510.00" incLanes="52o_0 2o_0 2o_1" intLanes=":2_0_0 :2_1_0" shape="1014.00,513.20 1014.00,506.80 1010.97,505.97 1009.03,504.43 1007.79,503.84 1006.00,503.60 1006.00,513.20">
        <request index="0" response="00" foes="00" cont="0"/>
        <request index="1" response="00" foes="00" cont="0"/>
    </junction>
    <junction id="3" type="priority" x="510.00" y="10.00" incLanes="3o_0 3o_1 53o_0" intLanes=":3_0_0 :3_1_0" shape="503.60,14.00 513.20,14.00 513.20,6.00 506.80,6.00 505.97,9.03 504.43,10.97 503.84,12.21">
        <request index="0" response="00" foes="00" cont="0"/>
        <request index="1" response="00" foes="00" cont="0"/>
    </junction>
    <junction id="4" type="priority" x="10.00" y="510.00" incLanes="4o_0 4o_1 54o_0" intLanes=":4_0_0 :4_1_0 :4_1_1" shape="14.00,516.40 14.00,503.60 10.97,504.43 9.03,505.97 7.79,506.56 6.00,506.80 6.00,513.20 9.03,514.03 10.97,515.57 12.21,516.16">
        <request index="0" response="000" foes="000" cont="0"/>
        <request index="1" response="000" foes="000" cont="0"/>
        <request index="2" response="000" foes="000" cont="0"/>
    </junction>
    <junction id="51" type="priority" x="510.00" y="1020.00" incLanes="51i_0" intLanes=":51_0_0" shape="510.00,1020.00 513.20,1020.00 510.00,1020.00">
        <request index="0" response="0" foes="0" cont="0"/>
    </junction>
    <junction id="52" type="priority" x="1020.00" y="510.00" incLanes="52i_0" intLanes=":52_0_0" shape="1020.00,510.00 1020.00,506.80 1020.00,510.00">
        <request index="0" response="0" foes="0" cont="0"/>
    </junction>
    <junction id="53" type="priority" x="510.00" y="0.00" incLanes="53i_0" intLanes=":53_0_0" shape="510.00,0.00 506.80,0.00 510.00,0.00">
        <request index="0" response="0" foes="0" cont="0"/>
    </junction>
    <junction id="54" type="priority" x="0.00" y="510.00" incLanes="54i_0" intLanes=":54_0_0" shape="0.00,510.00 0.00,513.20 0.00,510.00">
        <request index="0" response="0" foes="0" cont="0"/>
    </junction>

    <connection from="1i" to="4o" fromLane="0" toLane="0" via=":0_0_0" tl="0" linkIndex="0" dir="r" state="O"/>
    <connection from="1i" to="3o" fromLane="0" toLane="0" via=":0_1_0" tl="0" linkIndex="1" dir="s" state="O"/>
    <connection from="1i" to="3o" fromLane="1" toLane="1" via=":0_1_1" tl="0" linkIndex="2" dir="s" state="O"/>
    <connection from="1i" to="2o" fromLane="1" toLane="1" via=":0_3_0" tl="0" linkIndex="3" dir="l" state="o"/>
    <connection from="1o" to="51i" fromLane="0" toLane="0" via=":1_2_0" dir="s" state="M"/>
    <connection from="2i" to="1o" fromLane="0" toLane="0" via=":0_4_0" tl="0" linkIndex="4" dir="r" state="o"/>
    <connection from="2i" to="4o" fromLane="0" toLane="1" via=":0_5_0" tl="0" linkIndex="5" dir="s" state="o"/>
    <connection from="2i" to="3o" fromLane="0" toLane="1" via=":0_6_0" tl="0" linkIndex="6" dir="l" state="o"/>
    <connection from="2o" to="52i" fromLane="0" toLane="0" via=":2_1_0" dir="s" state="M"/>
    <connection from="3i" to="2o" fromLane="0" toLane="0" via=":0_7_0" tl="0" linkIndex="7" dir="r" state="O"/>
    <connection from="3i" to="1o" fromLane="0" toLane="1" via=":0_8_0" tl="0" linkIndex="8" dir="s" state="O"/>
    <connection from="3i" to="4o" fromLane="0" toLane="1" via=":0_9_0" tl="0" linkIndex="9" dir="l" state="o"/>
    <connection from="3o" to="53i" fromLane="0" toLane="0" via=":3_0_0" dir="s" state="M"/>
    <connection from="4i" to="3o" fromLane="0" toLane="0" via=":0_10_0" tl="0" linkIndex="10" dir="r" state="o"/>
    <connection from="4i" to="2o" fromLane="0" toLane="0" via=":0_11_0" tl="0" linkIndex="11" dir="s" state="o"/>
    <connection from="4i" to="2o" fromLane="1" toLane="1" via=":0_11_1" tl="0" linkIndex="12" dir="s" state="o"/>
    <connection from="4i" to="1o" fromLane="1" toLane="1" via=":0_13_0" tl="0" linkIndex="13" dir="l" state="o"/>
    <connection from="4o" to="54i" fromLane="0" toLane="0" via=":4_0_0" dir="s" state="M"/>
    <connection from="51i" to="51o" fromLane="0" toLane="0" via=":51_0_0" dir="t" state="M"/>
    <connection from="51o" to="1i" fromLane="0" toLane="0" via=":1_0_0" dir="s" state="M"/>
    <connection from="51o" to="1i" fromLane="0" toLane="1" via=":1_0_1" dir="s" state="M"/>
    <connection from="52i" to="52o" fromLane="0" toLane="0" via=":52_0_0" dir="t" state="M"/>
    <connection from="52o" to="2i" fromLane="0" toLane="0" via=":2_0_0" dir="s" state="M"/>
    <connection from="53i" to="53o" fromLane="0" toLane="0" via=":53_0_0" dir="t" state="M"/>
    <connection from="53o" to="3i" fromLane="0" toLane="0" via=":3_1_0" dir="s" state="M"/>
    <connection from="54i" to="54o" fromLane="0" toLane="0" via=":54_0_0" dir="t" state="M"/>
    <connection from="54o" to="4i" fromLane="0" toLane="0" via=":4_1_0" dir="s" state="M"/>
    <connection from="54o" to="4i" fromLane="0" toLane="1" via=":4_1_1" dir="s" state="M"/>

    <connection from=":0_0" to="4o" fromLane="0" toLane="0" dir="r" state="M"/>
    <connection from=":0_1" to="3o" fromLane="0" toLane="0" dir="s" state="M"/>
    <connection from=":0_1" to="3o" fromLane="1" toLane="1" dir="s" state="M"/>
    <connection from=":0_3" to="2o" fromLane="0" toLane="1" dir="l" state="M"/>
    <connection from=":0_4" to="1o" fromLane="0" toLane="0" dir="r" state="M"/>
    <connection from=":0_5" to="4o" fromLane="0" toLane="1" dir="s" state="M"/>
    <connection from=":0_6" to="3o" fromLane="0" toLane="1" dir="l" state="M"/>
    <connection from=":0_7" to="2o" fromLane="0" toLane="0" dir="r" state="M"/>
    <connection from=":0_8" to="1o" fromLane="0" toLane="1" dir="s" state="M"/>
    <connection from=":0_9" to="4o" fromLane="0" toLane="1" dir="l" state="M"/>
    <connection from=":0_10" to="3o" fromLane="0" toLane="0" dir="r" state="M"/>
    <connection from=":0_11" to="2o" fromLane="0" toLane="0" dir="s" state="M"/>
    <connection from=":0_11" to="2o" fromLane="1" toLane="1" dir="s" state="M"/>
    <connection from=":0_13" to="1o" fromLane="0" toLane="1" dir="l" state="M"/>
    <connection from=":1_0" to="1i" fromLane="0" toLane="0" dir="s" state="M"/>
    <connection from=":1_0" to="1i" fromLane="1" toLane="1" dir="s" state="M"/>
    <connection from=":1_2" to="51i" fromLane="0" toLane="0" dir="s" state="M"/>
    <connection from=":2_0" to="2i" fromLane="0" toLane="0" dir="s" state="M"/>
    <connection from=":2_1" to="52i" fromLane="0" toLane="0" dir="s" state="M"/>
    <connection from=":3_0" to="53i" fromLane="0" toLane="0" dir="s" state="M"/>
    <connection from=":3_1" to="3i" fromLane="0" toLane="0" dir="s" state="M"/>
    <connection from=":4_0" to="54i" fromLane="0" toLane="0" dir="s" state="M"/>
    <connection from=":4_1" to="4i" fromLane="0" toLane="0" dir="s" state="M"/>
    <connection from=":4_1" to="4i" fromLane="1" toLane="1" dir="s" state="M"/>
    <connection from=":51_0" to="51o" fromLane="0" toLane="0" dir="t" state="M"/>
    <connection from=":52_0" to="52o" fromLane="0" toLane="0" dir="t" state="M"/>
    <connection from=":53_0" to="53o" fromLane="0" toLane="0" dir="t" state="M"/>
    <connection from=":54_0" to="54o" fromLane="0" toLane="0" dir="t" state="M"/>

</net>
