<connections>
   <connection from="0_0i" to="0_2o" fromLane="0" toLane="0"/>
   <connection from="0_0i" to="0_1o" fromLane="1" toLane="1"/>
   <connection from="0_0i" to="0_1o" fromLane="2" toLane="2"/>
   <connection from="0_0i" to="0_1o" fromLane="3" toLane="3"/>
   <connection from="0_0i" to="0_1o" fromLane="4" toLane="4"/>
   <connection from="0_1i" to="0_0o" fromLane="0" toLane="0"/>
   <connection from="0_1i" to="0_0o" fromLane="1" toLane="1"/>
   <connection from="0_1i" to="0_0o" fromLane="2" toLane="2"/>
   <connection from="0_1i" to="0_0o" fromLane="3" toLane="3"/>
   <connection from="0_1i" to="0_2o" fromLane="4" toLane="1"/>
   <connection from="0_1i" to="0_2o" fromLane="5" toLane="0"/>
   <connection from="0_2i" to="0_1o" fromLane="0" toLane="0"/>
   <connection from="0_2i" to="0_0o" fromLane="1" toLane="4"/>
   <connection from="0_2i" to="0_0o" fromLane="2" toLane="3"/>
   
   <connection from="1_0i" to="1_3o" fromLane="0" toLane="0"/>
   <connection from="1_0i" to="1_2o" fromLane="1" toLane="1"/>
   <connection from="1_0i" to="1_2o" fromLane="2" toLane="2"/>
   <connection from="1_0i" to="1_1o" fromLane="3" toLane="3"/>
   <connection from="1_0i" to="1_1o" fromLane="4" toLane="2"/>
   <connection from="1_1i" to="1_0o" fromLane="0" toLane="0"/>
   <connection from="1_1i" to="1_3o" fromLane="1" toLane="1"/>
   <connection from="1_1i" to="1_3o" fromLane="2" toLane="2"/>
   <connection from="1_1i" to="1_3o" fromLane="3" toLane="3"/>
   <connection from="1_1i" to="1_2o" fromLane="4" toLane="4"/>
   <connection from="1_2i" to="1_1o" fromLane="0" toLane="0"/>
   <connection from="1_2i" to="1_0o" fromLane="1" toLane="1"/>
   <connection from="1_2i" to="1_0o" fromLane="2" toLane="2"/>
   <connection from="1_2i" to="1_3o" fromLane="3" toLane="3"/>
   <connection from="1_2i" to="1_3o" fromLane="4" toLane="2"/>
   <connection from="1_3i" to="1_2o" fromLane="0" toLane="0"/>
   <connection from="1_3i" to="1_1o" fromLane="1" toLane="1"/>
   <connection from="1_3i" to="1_1o" fromLane="2" toLane="2"/>
   <connection from="1_3i" to="1_0o" fromLane="3" toLane="2"/>
   <connection from="1_3i" to="1_0o" fromLane="4" toLane="1"/>
   
   <connection from="2_0i" to="2_2o" fromLane="0" toLane="0"/>
   <connection from="2_0i" to="2_2o" fromLane="1" toLane="1"/>
   <connection from="2_0i" to="2_2o" fromLane="2" toLane="2"/>
   <connection from="2_0i" to="2_2o" fromLane="3" toLane="3"/>
   <connection from="2_0i" to="2_1o" fromLane="4" toLane="3"/>
   <connection from="2_1i" to="2_0o" fromLane="0" toLane="0"/>
   <connection from="2_1i" to="2_2o" fromLane="1" toLane="3"/>
   <connection from="2_1i" to="2_2o" fromLane="2" toLane="2"/>
   <connection from="2_1i" to="2_2o" fromLane="3" toLane="1"/>
   <connection from="2_2i" to="2_1o" fromLane="0" toLane="0"/>
   <connection from="2_2i" to="2_0o" fromLane="1" toLane="1"/>
   <connection from="2_2i" to="2_0o" fromLane="2" toLane="2"/>
   <connection from="2_2i" to="2_0o" fromLane="3" toLane="3"/>
   <connection from="2_2i" to="2_0o" fromLane="4" toLane="4"/>
   
   <connection from="3_0i" to="3_3o" fromLane="0" toLane="0"/>
   <connection from="3_0i" to="3_2o" fromLane="0" toLane="2"/>
   <connection from="3_0i" to="3_2o" fromLane="1" toLane="3"/>
   <connection from="3_0i" to="3_2o" fromLane="2" toLane="4"/>
   <connection from="3_0i" to="3_1o" fromLane="3" toLane="2"/>
   <connection from="3_0i" to="3_1o" fromLane="4" toLane="1"/>
   <connection from="3_1i" to="3_0o" fromLane="0" toLane="0"/>
   <connection from="3_1i" to="3_3o" fromLane="0" toLane="1"/>
   <connection from="3_1i" to="3_3o" fromLane="1" toLane="2"/>
   <connection from="3_1i" to="3_2o" fromLane="1" toLane="4"/>
   <connection from="3_2i" to="3_1o" fromLane="0" toLane="0"/>
   <connection from="3_2i" to="3_0o" fromLane="1" toLane="1"/>
   <connection from="3_2i" to="3_0o" fromLane="2" toLane="2"/>
   <connection from="3_2i" to="3_3o" fromLane="3" toLane="3"/>
   <connection from="3_2i" to="3_3o" fromLane="4" toLane="2"/>
   <connection from="3_3i" to="3_2o" fromLane="0" toLane="0"/>
   <connection from="3_3i" to="3_2o" fromLane="1" toLane="1"/>
   <connection from="3_3i" to="3_1o" fromLane="2" toLane="1"/>
   <connection from="3_3i" to="3_0o" fromLane="2" toLane="2"/>
   <connection from="3_3i" to="3_0o" fromLane="3" toLane="1"/>
   
   <connection from="4_0i" to="4_3o" fromLane="0" toLane="0"/>
   <connection from="4_0i" to="4_2o" fromLane="1" toLane="1"/>
   <connection from="4_0i" to="4_2o" fromLane="2" toLane="2"/>
   <connection from="4_0i" to="4_1o" fromLane="3" toLane="3"/>
   <connection from="4_0i" to="4_1o" fromLane="4" toLane="2"/>
   <connection from="4_1i" to="4_0o" fromLane="0" toLane="0"/>
   <connection from="4_1i" to="4_3o" fromLane="1" toLane="1"/>
   <connection from="4_1i" to="4_3o" fromLane="2" toLane="2"/>
   <connection from="4_1i" to="4_3o" fromLane="3" toLane="3"/>
   <connection from="4_1i" to="4_2o" fromLane="4" toLane="3"/>
   <connection from="4_2i" to="4_1o" fromLane="0" toLane="0"/>
   <connection from="4_2i" to="4_0o" fromLane="1" toLane="1"/>
   <connection from="4_2i" to="4_0o" fromLane="2" toLane="2"/>
   <connection from="4_2i" to="4_3o" fromLane="3" toLane="3"/>
   <connection from="4_2i" to="4_3o" fromLane="4" toLane="2"/>
   <connection from="4_3i" to="4_2o" fromLane="0" toLane="0"/>
   <connection from="4_3i" to="4_1o" fromLane="1" toLane="1"/>
   <connection from="4_3i" to="4_1o" fromLane="2" toLane="2"/>
   <connection from="4_3i" to="4_1o" fromLane="3" toLane="3"/>
   <connection from="4_3i" to="4_0o" fromLane="4" toLane="2"/>
   
</connections>
