<routes>
    <vType id="typeWE" accel="0.8" decel="4.5" sigma="0.5" length="5" minGap="2.5" maxSpeed="16.67" guiShape="passenger"/>
    <vType id="typeNS" accel="0.8" decel="4.5" sigma="0.5" length="7" minGap="3" maxSpeed="25" guiShape="bus"/>

    <route id="right" edges="52o 2i 1o 51i" />
    <route id="left" edges="54o 4i 3o 53i" />
    <route id="down" edges="51o 1i 4o 54i" />
    <vehicle id="left_0" type="typeWE" route="left" depart="0" />
    <vehicle id="left_1" type="typeWE" route="left" depart="50" />
    <vehicle id="right_2" type="typeWE" route="right" depart="100" />
    <vehicle id="right_3" type="typeWE" route="right" depart="150" />
    <vehicle id="left_4" type="typeWE" route="left" depart="200" />
    <vehicle id="right_5" type="typeWE" route="right" depart="10000" />
</routes>
