<edges>
   <edge id="0_0i" from="0_0" to="0" numLanes="5" speed="60.000000" length="90.000000"/>
   <edge id="0_0o" from="0" to="0_0" numLanes="5" speed="60.000000" length="90.000000"/>

   <edge id="0_1i" from="0_1" to="0" numLanes="6" speed="60.000000" length="175.000000"/>
   <edge id="0_1o" from="0" to="0_1" numLanes="5" speed="60.000000" length="175.000000"/>

   <edge id="0_2i" from="0_2" to="0" numLanes="3" speed="60.000000" length="100.000000"/>
   <edge id="0_2o" from="0" to="0_2" numLanes="2" speed="60.000000" length="100.000000"/>

   <edge id="1_0i" from="1_0" to="1" numLanes="5" speed="60.000000" length="100.000000"/>
   <edge id="1_0o" from="1" to="1_0" numLanes="3" speed="60.000000" length="100.000000"/>

   <edge id="1_1i" from="1_1" to="1" numLanes="5" speed="60.000000" length="136.000000"/>
   <edge id="1_1o" from="1" to="1_1" numLanes="4" speed="60.000000" length="136.000000"/>

   <edge id="1_2i" from="1_2" to="1" numLanes="5" speed="60.000000" length="100.000000"/>
   <edge id="1_2o" from="1" to="1_2" numLanes="5" speed="60.000000" length="100.000000"/>

   <edge id="1_3i" from="1_3" to="1" numLanes="5" speed="60.000000" length="130.000000"/>
   <edge id="1_3o" from="1" to="1_3" numLanes="4" speed="60.000000" length="130.000000"/>

   <edge id="2_0i" from="2_0" to="2" numLanes="5" speed="60.000000" length="100.000000"/>
   <edge id="2_0o" from="2" to="2_0" numLanes="5" speed="60.000000" length="100.000000"/>

   <edge id="2_1i" from="2_1" to="2" numLanes="4" speed="60.000000" length="100.000000"/>
   <edge id="2_1o" from="2" to="2_1" numLanes="4" speed="60.000000" length="100.000000"/>

   <edge id="2_2i" from="2_2" to="2" numLanes="5" speed="60.000000" length="70.000000"/>
   <edge id="2_2o" from="2" to="2_2" numLanes="4" speed="60.000000" length="70.000000"/>

   <edge id="r1_0_1" from="0_1" to="1_0" numLanes="4" speed="60.000000" length="725.000000"/>
   <edge id="r1_1_0" from="1_0" to="0_1" numLanes="4" speed="60.000000" length="725.000000"/>

   <edge id="r2_1_2" from="1_2" to="2_0" numLanes="4" speed="60.000000" length="578.000000"/>
   <edge id="r2_2_1" from="2_0" to="1_2" numLanes="4" speed="60.000000" length="578.000000"/>

</edges>