<configuration>
   <input>
      <net-file value="test2.net.xml"/>
      <route-files value="pangyo.rou.xml"/>
   </input>
   <time>
      <begin value="0"/>
      <end value="10000"/>
   </time>
</configuration>