<?xml version='1.0' encoding='utf-8'?>
<routes>
  <vType accel="1.0" decel="5.0" id="Car" length="2.0" maxSpeed="70.0" sigma="0.0" />
  <route id="route0" edges="0_0i 0_1o r1_0_1 1_0i 1_3o" />
  <route id="route1" edges="0_0i 0_1o r1_0_1 1_0i 1_2o r2_1_2 2_0i 2_2o" />
  <route id="route2" edges="0_0i 0_1o r1_0_1 1_0i 1_1o r5_1_4 4_3i 4_0o" />
  <route id="route3" edges="0_0i 0_1o r1_0_1 1_0i 1_1o r5_1_4 4_3i 4_1o" />
  <route id="route4" edges="0_0i 0_1o r1_0_1 1_0i 1_1o r5_1_4 4_3i 4_2o r4_4_3 3_0i 3_1o" />
  <route id="route5" edges="0_0i 0_1o r1_0_1 1_0i 1_2o r2_1_2 2_0i 2_1o r3_2_3 3_3i 3_1o" />
  <route id="route6" edges="0_0i 0_1o r1_0_1 1_0i 1_1o r5_1_4 4_3i 4_2o r4_4_3 3_0i 3_2o" />
  <route id="route7" edges="0_0i 0_1o r1_0_1 1_0i 1_2o r2_1_2 2_0i 2_1o r3_2_3 3_3i 3_2o" />
  <route id="route8" edges="0_2i 0_1o r1_0_1 1_0i 1_3o" />
  <route id="route9" edges="0_2i 0_1o r1_0_1 1_0i 1_2o r2_1_2 2_0i 2_2o" />
  <route id="route10" edges="0_2i 0_1o r1_0_1 1_0i 1_1o r5_1_4 4_3i 4_0o" />
  <route id="route11" edges="0_2i 0_1o r1_0_1 1_0i 1_1o r5_1_4 4_3i 4_1o" />
  <route id="route12" edges="0_2i 0_1o r1_0_1 1_0i 1_1o r5_1_4 4_3i 4_2o r4_4_3 3_0i 3_1o" />
  <route id="route13" edges="0_2i 0_1o r1_0_1 1_0i 1_2o r2_1_2 2_0i 2_1o r3_2_3 3_3i 3_1o" />
  <route id="route14" edges="0_2i 0_1o r1_0_1 1_0i 1_1o r5_1_4 4_3i 4_2o r4_4_3 3_0i 3_2o" />
  <route id="route15" edges="0_2i 0_1o r1_0_1 1_0i 1_2o r2_1_2 2_0i 2_1o r3_2_3 3_3i 3_2o" />
  <route id="route16" edges="1_3i 1_0o r1_1_0 0_1i 0_0o" />
  <route id="route17" edges="1_3i 1_0o r1_1_0 0_1i 0_2o" />
  <route id="route18" edges="2_2i 2_0o r2_2_1 1_2i 1_0o r1_1_0 0_1i 0_0o" />
  <route id="route19" edges="2_2i 2_0o r2_2_1 1_2i 1_0o r1_1_0 0_1i 0_2o" />
  <route id="route20" edges="4_0i 4_3o r5_4_1 1_1i 1_0o r1_1_0 0_1i 0_0o" />
  <route id="route21" edges="4_0i 4_3o r5_4_1 1_1i 1_0o r1_1_0 0_1i 0_2o" />
  <route id="route22" edges="4_1i 4_3o r5_4_1 1_1i 1_0o r1_1_0 0_1i 0_0o" />
  <route id="route23" edges="4_1i 4_3o r5_4_1 1_1i 1_0o r1_1_0 0_1i 0_2o" />
  <route id="route24" edges="3_1i 3_0o r4_3_4 4_2i 4_3o r5_4_1 1_1i 1_0o r1_1_0 0_1i 0_0o" />
  <route id="route25" edges="3_1i 3_3o r3_3_2 2_1i 2_0o r2_2_1 1_2i 1_0o r1_1_0 0_1i 0_0o" />
  <route id="route26" edges="3_1i 3_0o r4_3_4 4_2i 4_3o r5_4_1 1_1i 1_0o r1_1_0 0_1i 0_2o" />
  <route id="route27" edges="3_1i 3_3o r3_3_2 2_1i 2_0o r2_2_1 1_2i 1_0o r1_1_0 0_1i 0_2o" />
  <route id="route28" edges="3_2i 3_0o r4_3_4 4_2i 4_3o r5_4_1 1_1i 1_0o r1_1_0 0_1i 0_0o" />
  <route id="route29" edges="3_2i 3_3o r3_3_2 2_1i 2_0o r2_2_1 1_2i 1_0o r1_1_0 0_1i 0_0o" />
  <route id="route30" edges="3_2i 3_0o r4_3_4 4_2i 4_3o r5_4_1 1_1i 1_0o r1_1_0 0_1i 0_2o" />
  <route id="route31" edges="3_2i 3_3o r3_3_2 2_1i 2_0o r2_2_1 1_2i 1_0o r1_1_0 0_1i 0_2o" />
  <route id="route32" edges="1_3i 1_2o r2_1_2 2_0i 2_2o" />
  <route id="route33" edges="1_3i 1_2o r2_1_2 2_0i 2_1o r3_2_3 3_3i 3_1o" />
  <route id="route34" edges="1_3i 1_2o r2_1_2 2_0i 2_1o r3_2_3 3_3i 3_2o" />
  <route id="route35" edges="4_0i 4_3o r5_4_1 1_1i 1_2o r2_1_2 2_0i 2_2o" />
  <route id="route36" edges="4_1i 4_3o r5_4_1 1_1i 1_2o r2_1_2 2_0i 2_2o" />
  <route id="route37" edges="2_2i 2_0o r2_2_1 1_2i 1_3o" />
  <route id="route38" edges="2_2i 2_0o r2_2_1 1_2i 1_1o r5_1_4 4_3i 4_0o" />
  <route id="route39" edges="2_2i 2_0o r2_2_1 1_2i 1_1o r5_1_4 4_3i 4_1o" />
  <route id="route40" edges="3_1i 3_3o r3_3_2 2_1i 2_0o r2_2_1 1_2i 1_3o" />
  <route id="route41" edges="3_2i 3_3o r3_3_2 2_1i 2_0o r2_2_1 1_2i 1_3o" />
  <route id="route42" edges="2_2i 2_1o r3_2_3 3_3i 3_0o r4_3_4 4_2i 4_0o" />
  <route id="route43" edges="2_2i 2_1o r3_2_3 3_3i 3_0o r4_3_4 4_2i 4_1o" />
  <route id="route44" edges="2_2i 2_1o r3_2_3 3_3i 3_1o" />
  <route id="route45" edges="2_2i 2_1o r3_2_3 3_3i 3_2o" />
  <route id="route46" edges="4_0i 4_2o r4_4_3 3_0i 3_3o r3_3_2 2_1i 2_2o" />
  <route id="route47" edges="4_1i 4_2o r4_4_3 3_0i 3_3o r3_3_2 2_1i 2_2o" />
  <route id="route48" edges="3_1i 3_3o r3_3_2 2_1i 2_2o" />
  <route id="route49" edges="3_2i 3_3o r3_3_2 2_1i 2_2o" />
  <route id="route50" edges="3_1i 3_0o r4_3_4 4_2i 4_3o r5_4_1 1_1i 1_3o" />
  <route id="route51" edges="3_1i 3_0o r4_3_4 4_2i 4_0o" />
  <route id="route52" edges="3_1i 3_0o r4_3_4 4_2i 4_1o" />
  <route id="route53" edges="3_2i 3_0o r4_3_4 4_2i 4_3o r5_4_1 1_1i 1_3o" />
  <route id="route54" edges="3_2i 3_0o r4_3_4 4_2i 4_0o" />
  <route id="route55" edges="3_2i 3_0o r4_3_4 4_2i 4_1o" />
  <route id="route56" edges="1_3i 1_1o r5_1_4 4_3i 4_2o r4_4_3 3_0i 3_1o" />
  <route id="route57" edges="1_3i 1_1o r5_1_4 4_3i 4_2o r4_4_3 3_0i 3_2o" />
  <route id="route58" edges="4_0i 4_2o r4_4_3 3_0i 3_1o" />
  <route id="route59" edges="4_0i 4_2o r4_4_3 3_0i 3_2o" />
  <route id="route60" edges="4_1i 4_2o r4_4_3 3_0i 3_1o" />
  <route id="route61" edges="4_1i 4_2o r4_4_3 3_0i 3_2o" />
  <route id="route62" edges="4_0i 4_3o r5_4_1 1_1i 1_3o" />
  <route id="route63" edges="4_1i 4_3o r5_4_1 1_1i 1_3o" />
  <route id="route64" edges="1_3i 1_1o r5_1_4 4_3i 4_0o" />
  <route id="route65" edges="1_3i 1_1o r5_1_4 4_3i 4_1o" />
  <vehicle depart="3" id="veh3269" route="route31" type="Car" />
  <vehicle depart="4" id="veh948" route="route12" type="Car" />
  <vehicle depart="7" id="veh255" route="route5" type="Car" />
  <vehicle depart="7" id="veh3366" route="route39" type="Car" />
  <vehicle depart="8" id="veh3019" route="route30" type="Car" />
  <vehicle depart="9" id="veh2705" route="route28" type="Car" />
  <vehicle depart="11" id="veh1122" route="route13" type="Car" />
  <vehicle depart="11" id="veh1195" route="route13" type="Car" />
  <vehicle depart="12" id="veh1017" route="route12" type="Car" />
  <vehicle depart="15" id="veh1020" route="route12" type="Car" />
  <vehicle depart="15" id="veh2569" route="route28" type="Car" />
  <vehicle depart="17" id="veh2011" route="route25" type="Car" />
  <vehicle depart="19" id="veh1295" route="route14" type="Car" />
  <vehicle depart="19" id="veh1508" route="route15" type="Car" />
  <vehicle depart="20" id="veh666" route="route7" type="Car" />
  <vehicle depart="22" id="veh2325" route="route27" type="Car" />
  <vehicle depart="23" id="veh952" route="route12" type="Car" />
  <vehicle depart="23" id="veh1841" route="route24" type="Car" />
  <vehicle depart="23" id="veh2845" route="route29" type="Car" />
  <vehicle depart="27" id="veh2725" route="route29" type="Car" />
  <vehicle depart="28" id="veh983" route="route12" type="Car" />
  <vehicle depart="28" id="veh1398" route="route14" type="Car" />
  <vehicle depart="29" id="veh3297" route="route31" type="Car" />
  <vehicle depart="30" id="veh230" route="route5" type="Car" />
  <vehicle depart="31" id="veh1481" route="route15" type="Car" />
  <vehicle depart="31" id="veh2025" route="route25" type="Car" />
  <vehicle depart="32" id="veh3105" route="route30" type="Car" />
  <vehicle depart="33" id="veh897" route="route12" type="Car" />
  <vehicle depart="34" id="veh604" route="route6" type="Car" />
  <vehicle depart="35" id="veh1703" route="route23" type="Car" />
  <vehicle depart="36" id="veh1605" route="route15" type="Car" />
  <vehicle depart="36" id="veh3268" route="route31" type="Car" />
  <vehicle depart="37" id="veh2876" route="route29" type="Car" />
  <vehicle depart="37" id="veh3052" route="route30" type="Car" />
  <vehicle depart="39" id="veh1272" route="route14" type="Car" />
  <vehicle depart="39" id="veh3210" route="route31" type="Car" />
  <vehicle depart="41" id="veh672" route="route7" type="Car" />
  <vehicle depart="43" id="veh1568" route="route15" type="Car" />
  <vehicle depart="43" id="veh2381" route="route27" type="Car" />
  <vehicle depart="45" id="veh343" route="route5" type="Car" />
  <vehicle depart="47" id="veh563" route="route6" type="Car" />
  <vehicle depart="49" id="veh1019" route="route12" type="Car" />
  <vehicle depart="49" id="veh2649" route="route28" type="Car" />
  <vehicle depart="51" id="veh1878" route="route24" type="Car" />
  <vehicle depart="51" id="veh2592" route="route28" type="Car" />
  <vehicle depart="51" id="veh3445" route="route55" type="Car" />
  <vehicle depart="52" id="veh667" route="route7" type="Car" />
  <vehicle depart="52" id="veh2129" route="route26" type="Car" />
  <vehicle depart="53" id="veh2046" route="route25" type="Car" />
  <vehicle depart="54" id="veh64" route="route4" type="Car" />
  <vehicle depart="54" id="veh1904" route="route24" type="Car" />
  <vehicle depart="54" id="veh2333" route="route27" type="Car" />
  <vehicle depart="55" id="veh1777" route="route24" type="Car" />
  <vehicle depart="56" id="veh424" route="route5" type="Car" />
  <vehicle depart="56" id="veh441" route="route6" type="Car" />
  <vehicle depart="56" id="veh1523" route="route15" type="Car" />
  <vehicle depart="57" id="veh718" route="route7" type="Car" />
  <vehicle depart="60" id="veh1470" route="route15" type="Car" />
  <vehicle depart="60" id="veh2235" route="route26" type="Car" />
  <vehicle depart="60" id="veh2445" route="route27" type="Car" />
  <vehicle depart="60" id="veh3033" route="route30" type="Car" />
  <vehicle depart="64" id="veh537" route="route6" type="Car" />
  <vehicle depart="64" id="veh1975" route="route25" type="Car" />
  <vehicle depart="65" id="veh264" route="route5" type="Car" />
  <vehicle depart="66" id="veh420" route="route5" type="Car" />
  <vehicle depart="66" id="veh2171" route="route26" type="Car" />
  <vehicle depart="66" id="veh3005" route="route30" type="Car" />
  <vehicle depart="67" id="veh2241" route="route26" type="Car" />
  <vehicle depart="67" id="veh2989" route="route30" type="Car" />
  <vehicle depart="68" id="veh1456" route="route14" type="Car" />
  <vehicle depart="69" id="veh922" route="route12" type="Car" />
  <vehicle depart="69" id="veh1554" route="route15" type="Car" />
  <vehicle depart="70" id="veh1472" route="route15" type="Car" />
  <vehicle depart="72" id="veh2289" route="route26" type="Car" />
  <vehicle depart="72" id="veh3360" route="route38" type="Car" />
  <vehicle depart="74" id="veh296" route="route5" type="Car" />
  <vehicle depart="74" id="veh2892" route="route29" type="Car" />
  <vehicle depart="74" id="veh3281" route="route31" type="Car" />
  <vehicle depart="76" id="veh1933" route="route25" type="Car" />
  <vehicle depart="77" id="veh41" route="route4" type="Car" />
  <vehicle depart="77" id="veh2277" route="route26" type="Car" />
  <vehicle depart="78" id="veh574" route="route6" type="Car" />
  <vehicle depart="78" id="veh2186" route="route26" type="Car" />
  <vehicle depart="79" id="veh1317" route="route14" type="Car" />
  <vehicle depart="79" id="veh1628" route="route15" type="Car" />
  <vehicle depart="79" id="veh1849" route="route24" type="Car" />
  <vehicle depart="80" id="veh422" route="route5" type="Car" />
  <vehicle depart="80" id="veh2475" route="route27" type="Car" />
  <vehicle depart="84" id="veh2416" route="route27" type="Car" />
  <vehicle depart="85" id="veh1817" route="route24" type="Car" />
  <vehicle depart="90" id="veh986" route="route12" type="Car" />
  <vehicle depart="91" id="veh1774" route="route24" type="Car" />
  <vehicle depart="91" id="veh2065" route="route25" type="Car" />
  <vehicle depart="92" id="veh1627" route="route15" type="Car" />
  <vehicle depart="93" id="veh1292" route="route14" type="Car" />
  <vehicle depart="94" id="veh1846" route="route24" type="Car" />
  <vehicle depart="95" id="veh1147" route="route13" type="Car" />
  <vehicle depart="95" id="veh2247" route="route26" type="Car" />
  <vehicle depart="98" id="veh437" route="route6" type="Car" />
  <vehicle depart="98" id="veh1606" route="route15" type="Car" />
  <vehicle depart="98" id="veh1646" route="route15" type="Car" />
  <vehicle depart="99" id="veh383" route="route5" type="Car" />
  <vehicle depart="99" id="veh937" route="route12" type="Car" />
  <vehicle depart="99" id="veh2429" route="route27" type="Car" />
  <vehicle depart="100" id="veh553" route="route6" type="Car" />
  <vehicle depart="100" id="veh2559" route="route28" type="Car" />
  <vehicle depart="100" id="veh2959" route="route30" type="Car" />
  <vehicle depart="100" id="veh2992" route="route30" type="Car" />
  <vehicle depart="102" id="veh1136" route="route13" type="Car" />
  <vehicle depart="103" id="veh2882" route="route29" type="Car" />
  <vehicle depart="104" id="veh852" route="route12" type="Car" />
  <vehicle depart="108" id="veh788" route="route7" type="Car" />
  <vehicle depart="109" id="veh211" route="route4" type="Car" />
  <vehicle depart="110" id="veh172" route="route4" type="Car" />
  <vehicle depart="112" id="veh2384" route="route27" type="Car" />
  <vehicle depart="114" id="veh2605" route="route28" type="Car" />
  <vehicle depart="117" id="veh1691" route="route21" type="Car" />
  <vehicle depart="118" id="veh3024" route="route30" type="Car" />
  <vehicle depart="119" id="veh2120" route="route26" type="Car" />
  <vehicle depart="122" id="veh3441" route="route54" type="Car" />
  <vehicle depart="125" id="veh239" route="route5" type="Car" />
  <vehicle depart="125" id="veh1978" route="route25" type="Car" />
  <vehicle depart="125" id="veh2068" route="route25" type="Car" />
  <vehicle depart="127" id="veh694" route="route7" type="Car" />
  <vehicle depart="131" id="veh738" route="route7" type="Car" />
  <vehicle depart="132" id="veh772" route="route7" type="Car" />
  <vehicle depart="132" id="veh2406" route="route27" type="Car" />
  <vehicle depart="133" id="veh637" route="route7" type="Car" />
  <vehicle depart="135" id="veh1655" route="route15" type="Car" />
  <vehicle depart="135" id="veh3283" route="route31" type="Car" />
  <vehicle depart="136" id="veh2168" route="route26" type="Car" />
  <vehicle depart="138" id="veh1066" route="route13" type="Car" />
  <vehicle depart="139" id="veh1091" route="route13" type="Car" />
  <vehicle depart="139" id="veh1566" route="route15" type="Car" />
  <vehicle depart="144" id="veh883" route="route12" type="Car" />
  <vehicle depart="145" id="veh2968" route="route30" type="Car" />
  <vehicle depart="146" id="veh1750" route="route24" type="Car" />
  <vehicle depart="147" id="veh1670" route="route17" type="Car" />
  <vehicle depart="148" id="veh1920" route="route25" type="Car" />
  <vehicle depart="151" id="veh1449" route="route14" type="Car" />
  <vehicle depart="153" id="veh624" route="route6" type="Car" />
  <vehicle depart="153" id="veh841" route="route9" type="Car" />
  <vehicle depart="155" id="veh1723" route="route24" type="Car" />
  <vehicle depart="156" id="veh312" route="route5" type="Car" />
  <vehicle depart="156" id="veh3285" route="route31" type="Car" />
  <vehicle depart="159" id="veh962" route="route12" type="Car" />
  <vehicle depart="159" id="veh3200" route="route31" type="Car" />
  <vehicle depart="163" id="veh856" route="route12" type="Car" />
  <vehicle depart="164" id="veh2482" route="route27" type="Car" />
  <vehicle depart="169" id="veh2102" route="route25" type="Car" />
  <vehicle depart="170" id="veh1686" route="route20" type="Car" />
  <vehicle depart="171" id="veh3047" route="route30" type="Car" />
  <vehicle depart="173" id="veh618" route="route6" type="Car" />
  <vehicle depart="174" id="veh3390" route="route44" type="Car" />
  <vehicle depart="176" id="veh2447" route="route27" type="Car" />
  <vehicle depart="177" id="veh505" route="route6" type="Car" />
  <vehicle depart="177" id="veh2563" route="route28" type="Car" />
  <vehicle depart="180" id="veh951" route="route12" type="Car" />
  <vehicle depart="180" id="veh1335" route="route14" type="Car" />
  <vehicle depart="180" id="veh2755" route="route29" type="Car" />
  <vehicle depart="181" id="veh3093" route="route30" type="Car" />
  <vehicle depart="182" id="veh728" route="route7" type="Car" />
  <vehicle depart="183" id="veh2728" route="route29" type="Car" />
  <vehicle depart="184" id="veh579" route="route6" type="Car" />
  <vehicle depart="185" id="veh740" route="route7" type="Car" />
  <vehicle depart="185" id="veh2820" route="route29" type="Car" />
  <vehicle depart="186" id="veh2183" route="route26" type="Car" />
  <vehicle depart="186" id="veh3176" route="route31" type="Car" />
  <vehicle depart="190" id="veh2169" route="route26" type="Car" />
  <vehicle depart="191" id="veh967" route="route12" type="Car" />
  <vehicle depart="192" id="veh1397" route="route14" type="Car" />
  <vehicle depart="193" id="veh2119" route="route26" type="Car" />
  <vehicle depart="194" id="veh3191" route="route31" type="Car" />
  <vehicle depart="195" id="veh472" route="route6" type="Car" />
  <vehicle depart="195" id="veh1238" route="route13" type="Car" />
  <vehicle depart="198" id="veh481" route="route6" type="Car" />
  <vehicle depart="200" id="veh1964" route="route25" type="Car" />
  <vehicle depart="201" id="veh1945" route="route25" type="Car" />
  <vehicle depart="201" id="veh2598" route="route28" type="Car" />
  <vehicle depart="202" id="veh1675" route="route18" type="Car" />
  <vehicle depart="203" id="veh3133" route="route31" type="Car" />
  <vehicle depart="204" id="veh1868" route="route24" type="Car" />
  <vehicle depart="205" id="veh1015" route="route12" type="Car" />
  <vehicle depart="207" id="veh1844" route="route24" type="Car" />
  <vehicle depart="207" id="veh2508" route="route27" type="Car" />
  <vehicle depart="208" id="veh35" route="route4" type="Car" />
  <vehicle depart="208" id="veh2998" route="route30" type="Car" />
  <vehicle depart="212" id="veh3378" route="route42" type="Car" />
  <vehicle depart="213" id="veh1895" route="route24" type="Car" />
  <vehicle depart="214" id="veh512" route="route6" type="Car" />
  <vehicle depart="215" id="veh2721" route="route29" type="Car" />
  <vehicle depart="216" id="veh1458" route="route14" type="Car" />
  <vehicle depart="216" id="veh3401" route="route46" type="Car" />
  <vehicle depart="217" id="veh3173" route="route31" type="Car" />
  <vehicle depart="218" id="veh2296" route="route26" type="Car" />
  <vehicle depart="221" id="veh1356" route="route14" type="Car" />
  <vehicle depart="222" id="veh1098" route="route13" type="Car" />
  <vehicle depart="222" id="veh2485" route="route27" type="Car" />
  <vehicle depart="223" id="veh1425" route="route14" type="Car" />
  <vehicle depart="223" id="veh2758" route="route29" type="Car" />
  <vehicle depart="225" id="veh682" route="route7" type="Car" />
  <vehicle depart="226" id="veh3277" route="route31" type="Car" />
  <vehicle depart="229" id="veh760" route="route7" type="Car" />
  <vehicle depart="229" id="veh1383" route="route14" type="Car" />
  <vehicle depart="229" id="veh3001" route="route30" type="Car" />
  <vehicle depart="230" id="veh686" route="route7" type="Car" />
  <vehicle depart="230" id="veh1948" route="route25" type="Car" />
  <vehicle depart="231" id="veh3243" route="route31" type="Car" />
  <vehicle depart="233" id="veh3055" route="route30" type="Car" />
  <vehicle depart="235" id="veh2008" route="route25" type="Car" />
  <vehicle depart="236" id="veh95" route="route4" type="Car" />
  <vehicle depart="236" id="veh367" route="route5" type="Car" />
  <vehicle depart="236" id="veh1046" route="route12" type="Car" />
  <vehicle depart="236" id="veh1121" route="route13" type="Car" />
  <vehicle depart="236" id="veh3437" route="route53" type="Car" />
  <vehicle depart="238" id="veh3273" route="route31" type="Car" />
  <vehicle depart="240" id="veh1599" route="route15" type="Car" />
  <vehicle depart="243" id="veh3362" route="route38" type="Car" />
  <vehicle depart="244" id="veh1633" route="route15" type="Car" />
  <vehicle depart="244" id="veh2754" route="route29" type="Car" />
  <vehicle depart="244" id="veh2799" route="route29" type="Car" />
  <vehicle depart="247" id="veh1365" route="route14" type="Car" />
  <vehicle depart="247" id="veh2678" route="route28" type="Car" />
  <vehicle depart="251" id="veh374" route="route5" type="Car" />
  <vehicle depart="251" id="veh2071" route="route25" type="Car" />
  <vehicle depart="252" id="veh1669" route="route17" type="Car" />
  <vehicle depart="252" id="veh2243" route="route26" type="Car" />
  <vehicle depart="253" id="veh3164" route="route31" type="Car" />
  <vehicle depart="253" id="veh3246" route="route31" type="Car" />
  <vehicle depart="254" id="veh2985" route="route30" type="Car" />
  <vehicle depart="256" id="veh2195" route="route26" type="Car" />
  <vehicle depart="256" id="veh3496" route="route65" type="Car" />
  <vehicle depart="257" id="veh177" route="route4" type="Car" />
  <vehicle depart="257" id="veh1196" route="route13" type="Car" />
  <vehicle depart="257" id="veh1274" route="route14" type="Car" />
  <vehicle depart="259" id="veh550" route="route6" type="Car" />
  <vehicle depart="261" id="veh1482" route="route15" type="Car" />
  <vehicle depart="261" id="veh3325" route="route31" type="Car" />
  <vehicle depart="262" id="veh2123" route="route26" type="Car" />
  <vehicle depart="262" id="veh2925" route="route30" type="Car" />
  <vehicle depart="263" id="veh236" route="route5" type="Car" />
  <vehicle depart="263" id="veh1254" route="route13" type="Car" />
  <vehicle depart="263" id="veh1966" route="route25" type="Car" />
  <vehicle depart="264" id="veh1123" route="route13" type="Car" />
  <vehicle depart="264" id="veh1202" route="route13" type="Car" />
  <vehicle depart="264" id="veh1837" route="route24" type="Car" />
  <vehicle depart="264" id="veh2172" route="route26" type="Car" />
  <vehicle depart="264" id="veh2395" route="route27" type="Car" />
  <vehicle depart="265" id="veh3056" route="route30" type="Car" />
  <vehicle depart="266" id="veh1106" route="route13" type="Car" />
  <vehicle depart="267" id="veh2263" route="route26" type="Car" />
  <vehicle depart="270" id="veh3251" route="route31" type="Car" />
  <vehicle depart="271" id="veh2983" route="route30" type="Car" />
  <vehicle depart="272" id="veh2770" route="route29" type="Car" />
  <vehicle depart="273" id="veh235" route="route5" type="Car" />
  <vehicle depart="273" id="veh655" route="route7" type="Car" />
  <vehicle depart="276" id="veh1110" route="route13" type="Car" />
  <vehicle depart="278" id="veh93" route="route4" type="Car" />
  <vehicle depart="278" id="veh1361" route="route14" type="Car" />
  <vehicle depart="278" id="veh2310" route="route26" type="Car" />
  <vehicle depart="278" id="veh3463" route="route59" type="Car" />
  <vehicle depart="280" id="veh3418" route="route50" type="Car" />
  <vehicle depart="281" id="veh2401" route="route27" type="Car" />
  <vehicle depart="284" id="veh66" route="route4" type="Car" />
  <vehicle depart="284" id="veh323" route="route5" type="Car" />
  <vehicle depart="285" id="veh3165" route="route31" type="Car" />
  <vehicle depart="287" id="veh506" route="route6" type="Car" />
  <vehicle depart="289" id="veh719" route="route7" type="Car" />
  <vehicle depart="289" id="veh1377" route="route14" type="Car" />
  <vehicle depart="289" id="veh1857" route="route24" type="Car" />
  <vehicle depart="290" id="veh1078" route="route13" type="Car" />
  <vehicle depart="290" id="veh2506" route="route27" type="Car" />
  <vehicle depart="290" id="veh2719" route="route29" type="Car" />
  <vehicle depart="290" id="veh3028" route="route30" type="Car" />
  <vehicle depart="291" id="veh958" route="route12" type="Car" />
  <vehicle depart="291" id="veh1028" route="route12" type="Car" />
  <vehicle depart="291" id="veh3103" route="route30" type="Car" />
  <vehicle depart="292" id="veh2239" route="route26" type="Car" />
  <vehicle depart="294" id="veh2203" route="route26" type="Car" />
  <vehicle depart="295" id="veh1431" route="route14" type="Car" />
  <vehicle depart="296" id="veh452" route="route6" type="Car" />
  <vehicle depart="296" id="veh3255" route="route31" type="Car" />
  <vehicle depart="296" id="veh3286" route="route31" type="Car" />
  <vehicle depart="297" id="veh1936" route="route25" type="Car" />
  <vehicle depart="298" id="veh2425" route="route27" type="Car" />
  <vehicle depart="300" id="veh1867" route="route24" type="Car" />
  <vehicle depart="300" id="veh2426" route="route27" type="Car" />
  <vehicle depart="302" id="veh681" route="route7" type="Car" />
  <vehicle depart="302" id="veh1357" route="route14" type="Car" />
  <vehicle depart="303" id="veh3489" route="route64" type="Car" />
  <vehicle depart="304" id="veh3065" route="route30" type="Car" />
  <vehicle depart="306" id="veh1050" route="route12" type="Car" />
  <vehicle depart="306" id="veh1334" route="route14" type="Car" />
  <vehicle depart="306" id="veh1771" route="route24" type="Car" />
  <vehicle depart="308" id="veh1551" route="route15" type="Car" />
  <vehicle depart="309" id="veh1707" route="route24" type="Car" />
  <vehicle depart="310" id="veh3414" route="route49" type="Car" />
  <vehicle depart="311" id="veh1940" route="route25" type="Car" />
  <vehicle depart="311" id="veh2544" route="route28" type="Car" />
  <vehicle depart="312" id="veh2418" route="route27" type="Car" />
  <vehicle depart="316" id="veh2154" route="route26" type="Car" />
  <vehicle depart="316" id="veh3109" route="route30" type="Car" />
  <vehicle depart="317" id="veh2842" route="route29" type="Car" />
  <vehicle depart="322" id="veh219" route="route4" type="Car" />
  <vehicle depart="324" id="veh258" route="route5" type="Car" />
  <vehicle depart="324" id="veh2037" route="route25" type="Car" />
  <vehicle depart="325" id="veh460" route="route6" type="Car" />
  <vehicle depart="325" id="veh658" route="route7" type="Car" />
  <vehicle depart="326" id="veh2862" route="route29" type="Car" />
  <vehicle depart="327" id="veh24" route="route4" type="Car" />
  <vehicle depart="327" id="veh1140" route="route13" type="Car" />
  <vehicle depart="327" id="veh2542" route="route28" type="Car" />
  <vehicle depart="328" id="veh478" route="route6" type="Car" />
  <vehicle depart="329" id="veh3350" route="route36" type="Car" />
  <vehicle depart="330" id="veh635" route="route7" type="Car" />
  <vehicle depart="331" id="veh900" route="route12" type="Car" />
  <vehicle depart="331" id="veh1409" route="route14" type="Car" />
  <vehicle depart="332" id="veh1183" route="route13" type="Car" />
  <vehicle depart="332" id="veh1329" route="route14" type="Car" />
  <vehicle depart="332" id="veh1704" route="route24" type="Car" />
  <vehicle depart="333" id="veh1100" route="route13" type="Car" />
  <vehicle depart="334" id="veh1126" route="route13" type="Car" />
  <vehicle depart="335" id="veh148" route="route4" type="Car" />
  <vehicle depart="335" id="veh3471" route="route60" type="Car" />
  <vehicle depart="339" id="veh2621" route="route28" type="Car" />
  <vehicle depart="340" id="veh2619" route="route28" type="Car" />
  <vehicle depart="341" id="veh1125" route="route13" type="Car" />
  <vehicle depart="341" id="veh2747" route="route29" type="Car" />
  <vehicle depart="344" id="veh1877" route="route24" type="Car" />
  <vehicle depart="344" id="veh2209" route="route26" type="Car" />
  <vehicle depart="345" id="veh266" route="route5" type="Car" />
  <vehicle depart="345" id="veh3422" route="route50" type="Car" />
  <vehicle depart="345" id="veh3442" route="route54" type="Car" />
  <vehicle depart="346" id="veh479" route="route6" type="Car" />
  <vehicle depart="348" id="veh1673" route="route17" type="Car" />
  <vehicle depart="349" id="veh1932" route="route25" type="Car" />
  <vehicle depart="350" id="veh43" route="route4" type="Car" />
  <vehicle depart="350" id="veh638" route="route7" type="Car" />
  <vehicle depart="350" id="veh1053" route="route12" type="Car" />
  <vehicle depart="353" id="veh729" route="route7" type="Car" />
  <vehicle depart="354" id="veh500" route="route6" type="Car" />
  <vehicle depart="355" id="veh3006" route="route30" type="Car" />
  <vehicle depart="356" id="veh2510" route="route27" type="Car" />
  <vehicle depart="356" id="veh2602" route="route28" type="Car" />
  <vehicle depart="357" id="veh1939" route="route25" type="Car" />
  <vehicle depart="358" id="veh927" route="route12" type="Car" />
  <vehicle depart="358" id="veh1664" route="route16" type="Car" />
  <vehicle depart="360" id="veh300" route="route5" type="Car" />
  <vehicle depart="360" id="veh1008" route="route12" type="Car" />
  <vehicle depart="367" id="veh1075" route="route13" type="Car" />
  <vehicle depart="367" id="veh1464" route="route15" type="Car" />
  <vehicle depart="367" id="veh2522" route="route28" type="Car" />
  <vehicle depart="371" id="veh3429" route="route52" type="Car" />
  <vehicle depart="374" id="veh75" route="route4" type="Car" />
  <vehicle depart="374" id="veh1546" route="route15" type="Car" />
  <vehicle depart="375" id="veh2614" route="route28" type="Car" />
  <vehicle depart="376" id="veh394" route="route5" type="Car" />
  <vehicle depart="377" id="veh1883" route="route24" type="Car" />
  <vehicle depart="379" id="veh2312" route="route26" type="Car" />
  <vehicle depart="380" id="veh3276" route="route31" type="Car" />
  <vehicle depart="381" id="veh2525" route="route28" type="Car" />
  <vehicle depart="382" id="veh2800" route="route29" type="Car" />
  <vehicle depart="383" id="veh1107" route="route13" type="Car" />
  <vehicle depart="383" id="veh1695" route="route22" type="Car" />
  <vehicle depart="384" id="veh1613" route="route15" type="Car" />
  <vehicle depart="386" id="veh1040" route="route12" type="Car" />
  <vehicle depart="387" id="veh1645" route="route15" type="Car" />
  <vehicle depart="387" id="veh2549" route="route28" type="Car" />
  <vehicle depart="388" id="veh732" route="route7" type="Car" />
  <vehicle depart="388" id="veh2710" route="route28" type="Car" />
  <vehicle depart="388" id="veh2864" route="route29" type="Car" />
  <vehicle depart="390" id="veh656" route="route7" type="Car" />
  <vehicle depart="390" id="veh3379" route="route42" type="Car" />
  <vehicle depart="392" id="veh3253" route="route31" type="Car" />
  <vehicle depart="393" id="veh949" route="route12" type="Car" />
  <vehicle depart="396" id="veh58" route="route4" type="Car" />