<?xml version="1.0" encoding="UTF-8"?>

<!-- generated on 2023-03-31 14:35:50 by Eclipse SUMO netconvert Version 1.15.0
<configuration xmlns:xsi="http://www.w3.org/2001/XMLSchema-instance" xsi:noNamespaceSchemaLocation="http://sumo.dlr.de/xsd/netconvertConfiguration.xsd">

    <input>
        <node-files value="test_node.nod.xml"/>
        <edge-files value="test_edge.edg.xml"/>
        <connection-files value="test_connection.con.xml"/>
        <tllogic-files value="test_tllogic.tll.xml"/>
    </input>

    <output>
        <output-file value="test_network.net.xml"/>
    </output>

    <report>
        <verbose value="true"/>
    </report>

</configuration>
-->

<net version="1.9" junctionCornerDetail="5" limitTurnSpeed="5.50" xmlns:xsi="http://www.w3.org/2001/XMLSchema-instance" xsi:noNamespaceSchemaLocation="http://sumo.dlr.de/xsd/net_file.xsd">

    <location netOffset="750.00,70.00" convBoundary="0.00,0.00,850.00,1760.00" origBoundary="-750.00,-70.00,100.00,1690.00" projParameter="!"/>

    <edge id=":0_0" function="internal">
        <lane id=":0_0_0" index="0" speed="6.51" length="9.03" shape="85.60,1680.40 85.25,1677.95 84.20,1676.20 82.45,1675.15 80.00,1674.80"/>
    </edge>
    <edge id=":0_1" function="internal">
        <lane id=":0_1_0" index="0" speed="60.00" length="24.00" shape="88.80,1680.40 88.80,1656.40"/>
        <lane id=":0_1_1" index="1" speed="60.00" length="24.00" shape="92.00,1680.40 92.00,1656.40"/>
        <lane id=":0_1_2" index="2" speed="60.00" length="24.00" shape="95.20,1680.40 95.20,1656.40"/>
        <lane id=":0_1_3" index="3" speed="60.00" length="24.00" shape="98.40,1680.40 98.40,1656.40"/>
    </edge>
    <edge id=":0_5" function="internal">
        <lane id=":0_5_0" index="0" speed="60.00" length="24.28" shape="117.60,1656.40 117.10,1663.55 116.00,1668.40 114.90,1673.25 114.40,1680.40"/>
        <lane id=":0_5_1" index="1" speed="60.00" length="24.28" shape="114.40,1656.40 113.90,1663.55 112.80,1668.40 111.70,1673.25 111.20,1680.40"/>
        <lane id=":0_5_2" index="2" speed="60.00" length="24.28" shape="111.20,1656.40 110.70,1663.55 109.60,1668.40 108.50,1673.25 108.00,1680.40"/>
        <lane id=":0_5_3" index="3" speed="60.00" length="24.28" shape="108.00,1656.40 107.50,1663.55 106.40,1668.40 105.30,1673.25 104.80,1680.40"/>
    </edge>
    <edge id=":0_9" function="internal">
        <lane id=":0_9_0" index="0" speed="11.89" length="32.62" shape="104.80,1656.40 103.25,1663.05 98.60,1667.80 90.85,1670.65 80.00,1671.60"/>
        <lane id=":0_9_1" index="1" speed="11.84" length="32.30" shape="101.60,1656.40 100.25,1664.45 96.20,1670.20 89.45,1673.65 80.00,1674.80"/>
    </edge>
    <edge id=":0_11" function="internal">
        <lane id=":0_11_0" index="0" speed="6.51" length="9.03" shape="80.00,1662.00 82.45,1661.65 84.20,1660.60 85.25,1658.85 85.60,1656.40"/>
    </edge>
    <edge id=":0_12" function="internal">
        <lane id=":0_12_0" index="0" speed="11.39" length="29.85" shape="80.00,1665.20 89.45,1666.15 96.20,1669.00 100.25,1673.75 101.60,1680.40"/>
        <lane id=":0_12_1" index="1" speed="11.49" length="30.39" shape="80.00,1668.40 90.85,1669.15 98.60,1671.40 103.25,1675.15 104.80,1680.40"/>
    </edge>
    <edge id=":0_0_0" function="internal">
        <lane id=":0_0_0_0" index="0" speed="3.65" length="4.67" shape="101.60,1760.00 100.80,1761.20 100.00,1761.60 99.20,1761.20 98.40,1760.00"/>
    </edge>
    <edge id=":0_1_0" function="internal">
        <lane id=":0_1_0_0" index="0" speed="18.08" length="22.49" shape="85.60,1493.51 87.03,1486.88 90.76,1483.42 95.95,1480.49 101.76,1475.45"/>
        <lane id=":0_1_0_1" index="1" speed="17.35" length="22.49" shape="88.80,1493.51 90.21,1487.52 93.83,1484.53 98.80,1482.04 104.22,1477.50"/>
        <lane id=":0_1_0_2" index="2" speed="16.60" length="22.49" shape="92.00,1493.51 93.38,1488.15 96.90,1485.65 101.64,1483.59 106.67,1479.56"/>
        <lane id=":0_1_0_3" index="3" speed="15.84" length="22.49" shape="95.20,1493.51 96.55,1488.77 99.96,1486.76 104.47,1485.15 109.12,1481.61"/>
    </edge>
    <edge id=":0_1_4" function="internal">
        <lane id=":0_1_4_0" index="0" speed="7.46" length="9.52" shape="118.94,1489.83 118.20,1490.76 117.80,1491.50 117.63,1492.32 117.60,1493.51"/>
        <lane id=":0_1_4_1" index="1" speed="9.18" length="9.52" shape="116.48,1487.78 115.33,1489.23 114.71,1490.37 114.45,1491.65 114.40,1493.51"/>
        <lane id=":0_1_4_2" index="2" speed="10.62" length="9.52" shape="114.03,1485.72 112.47,1487.70 111.62,1489.25 111.27,1490.99 111.20,1493.51"/>
        <lane id=":0_1_4_3" index="3" speed="11.89" length="9.52" shape="111.58,1483.67 109.60,1486.16 108.53,1488.13 108.09,1490.33 108.00,1493.51"/>
        <lane id=":0_1_4_4" index="4" speed="12.73" length="9.52" shape="111.58,1483.67 108.90,1486.30 106.75,1488.06 105.32,1490.09 104.80,1493.51"/>
        <lane id=":0_1_4_5" index="5" speed="13.85" length="9.52" shape="111.58,1483.67 108.12,1486.49 104.90,1487.97 102.53,1489.77 101.60,1493.51"/>
    </edge>
    <edge id=":0_2_0" function="internal">
        <lane id=":0_2_0_0" index="0" speed="3.65" length="4.67" shape="0.00,1671.60 -1.20,1670.80 -1.60,1670.00 -1.20,1669.20 0.00,1668.40"/>
    </edge>
    <edge id=":1_0" function="internal">
        <lane id=":1_0_0" index="0" speed="7.33" length="11.73" shape="543.60,868.00 543.25,864.15 542.20,861.40 540.45,859.75 538.00,859.20"/>
    </edge>
    <edge id=":1_1" function="internal">
        <lane id=":1_1_0" index="0" speed="60.00" length="40.00" shape="546.80,868.00 546.80,828.00"/>
        <lane id=":1_1_1" index="1" speed="60.00" length="40.00" shape="550.00,868.00 550.00,828.00"/>
    </edge>
    <edge id=":1_3" function="internal">
        <lane id=":1_3_0" index="0" speed="12.72" length="37.45" shape="553.20,868.00 554.75,858.55 559.40,851.80 567.15,847.75 578.00,846.40"/>
        <lane id=":1_3_1" index="1" speed="12.72" length="37.45" shape="556.40,868.00 557.75,857.15 561.80,849.40 568.55,844.75 578.00,843.20"/>
    </edge>
    <edge id=":1_5" function="internal">
        <lane id=":1_5_0" index="0" speed="8.10" length="14.57" shape="578.00,862.40 572.75,862.75 569.00,863.80 566.75,865.55 566.00,868.00"/>
    </edge>
    <edge id=":1_6" function="internal">
        <lane id=":1_6_0" index="0" speed="60.00" length="40.13" shape="578.00,859.20 538.00,856.00"/>
        <lane id=":1_6_1" index="1" speed="60.00" length="40.13" shape="578.00,856.00 538.00,852.80"/>
        <lane id=":1_6_2" index="2" speed="60.00" length="40.13" shape="578.00,852.80 538.00,849.60"/>
    </edge>
    <edge id=":1_9" function="internal">
        <lane id=":1_9_0" index="0" speed="12.28" length="34.84" shape="578.00,849.60 568.55,848.25 561.80,844.20 557.75,837.45 556.40,828.00"/>
    </edge>
    <edge id=":1_10" function="internal">
        <lane id=":1_10_0" index="0" speed="7.33" length="11.73" shape="572.40,828.00 572.75,831.85 573.80,834.60 575.55,836.25 578.00,836.80"/>
    </edge>
    <edge id=":1_11" function="internal">
        <lane id=":1_11_0" index="0" speed="60.00" length="40.63" shape="569.20,828.00 568.20,840.69 566.00,849.97 563.80,858.27 562.80,868.00"/>
        <lane id=":1_11_1" index="1" speed="60.00" length="40.63" shape="566.00,828.00 565.00,840.69 562.80,849.97 560.60,858.27 559.60,868.00"/>
    </edge>
    <edge id=":1_13" function="internal">
        <lane id=":1_13_0" index="0" speed="12.72" length="37.45" shape="562.80,828.00 561.25,837.45 556.60,844.20 548.85,848.25 538.00,849.60"/>
        <lane id=":1_13_1" index="1" speed="12.72" length="37.45" shape="559.60,828.00 558.25,838.85 554.20,846.60 547.45,851.25 538.00,852.80"/>
    </edge>
    <edge id=":1_15" function="internal">
        <lane id=":1_15_0" index="0" speed="6.51" length="9.03" shape="538.00,833.60 540.45,833.25 542.20,832.20 543.25,830.45 543.60,828.00"/>
    </edge>
    <edge id=":1_16" function="internal">
        <lane id=":1_16_0" index="0" speed="60.00" length="40.13" shape="538.00,836.80 578.00,840.00"/>
        <lane id=":1_16_1" index="1" speed="60.00" length="40.13" shape="538.00,840.00 578.00,843.20"/>
    </edge>
    <edge id=":1_18" function="internal">
        <lane id=":1_18_0" index="0" speed="12.72" length="37.45" shape="538.00,843.20 547.45,844.75 554.20,849.40 558.25,857.15 559.60,868.00"/>
        <lane id=":1_18_1" index="1" speed="12.72" length="37.45" shape="538.00,846.40 548.85,847.75 556.60,851.80 561.25,858.55 562.80,868.00"/>
    </edge>
    <edge id=":1_0_0" function="internal">
        <lane id=":1_0_0_0" index="0" speed="16.00" length="16.89" shape="566.00,945.67 565.84,951.51 565.03,955.54 563.07,959.15 559.44,963.73"/>
        <lane id=":1_0_0_1" index="1" speed="15.08" length="16.89" shape="562.80,945.67 562.66,950.84 561.94,954.42 560.20,957.62 556.98,961.67"/>
        <lane id=":1_0_0_2" index="2" speed="14.10" length="16.89" shape="559.60,945.67 559.48,950.18 558.85,953.29 557.33,956.08 554.53,959.62"/>
        <lane id=":1_0_0_3" index="3" speed="13.77" length="16.89" shape="559.60,945.67 559.06,949.74 557.53,952.23 555.16,954.42 552.08,957.57"/>
    </edge>
    <edge id=":1_0_4" function="internal">
        <lane id=":1_0_4_0" index="0" speed="7.46" length="8.45" shape="542.26,949.35 543.00,948.42 543.40,947.68 543.57,946.86 543.60,945.67"/>
        <lane id=":1_0_4_1" index="1" speed="9.18" length="8.45" shape="544.72,951.40 545.87,949.95 546.49,948.80 546.75,947.52 546.80,945.67"/>
        <lane id=":1_0_4_2" index="2" speed="10.62" length="8.45" shape="547.17,953.46 548.73,951.48 549.58,949.93 549.93,948.19 550.00,945.67"/>
        <lane id=":1_0_4_3" index="3" speed="11.89" length="8.45" shape="549.62,955.51 551.60,953.02 552.67,951.05 553.11,948.85 553.20,945.67"/>
        <lane id=":1_0_4_4" index="4" speed="12.73" length="8.45" shape="549.62,955.51 552.30,952.88 554.45,951.11 555.88,949.08 556.40,945.67"/>
    </edge>
    <edge id=":1_1_0" function="internal">
        <lane id=":1_1_0_0" index="0" speed="3.65" length="4.67" shape="694.00,846.40 695.20,847.20 695.60,848.00 695.20,848.80 694.00,849.60"/>
    </edge>
    <edge id=":1_2_0" function="internal">
        <lane id=":1_2_0_0" index="0" speed="41.30" length="16.83" shape="543.60,744.44 544.59,739.48 546.99,736.59 549.92,733.78 552.48,729.08"/>
        <lane id=":1_2_0_1" index="1" speed="40.23" length="16.83" shape="546.80,744.44 547.79,739.77 550.17,737.10 553.04,734.51 555.52,730.08"/>
        <lane id=":1_2_0_2" index="2" speed="39.14" length="16.83" shape="550.00,744.44 550.99,740.07 553.34,737.61 556.17,735.24 558.56,731.09"/>
        <lane id=":1_2_0_3" index="3" speed="38.03" length="16.83" shape="553.20,744.44 554.18,740.36 556.52,738.13 559.29,735.97 561.60,732.10"/>
    </edge>
    <edge id=":1_2_4" function="internal">
        <lane id=":1_2_4_0" index="0" speed="28.21" length="10.54" shape="573.74,736.14 572.97,738.53 572.57,740.21 572.42,741.93 572.40,744.44"/>
        <lane id=":1_2_4_1" index="1" speed="29.86" length="10.54" shape="570.71,735.13 569.84,737.81 569.40,739.69 569.23,741.62 569.20,744.44"/>
        <lane id=":1_2_4_2" index="2" speed="31.43" length="10.54" shape="567.67,734.12 566.71,737.09 566.22,739.18 566.03,741.32 566.00,744.44"/>
        <lane id=":1_2_4_3" index="3" speed="32.92" length="10.54" shape="564.63,733.11 563.58,736.37 563.04,738.66 562.83,741.01 562.80,744.44"/>
        <lane id=":1_2_4_4" index="4" speed="34.38" length="10.54" shape="564.63,733.11 563.02,736.49 561.38,738.66 560.11,740.88 559.60,744.44"/>
    </edge>
    <edge id=":1_3_0" function="internal">
        <lane id=":1_3_0_0" index="0" speed="3.65" length="4.67" shape="428.00,849.60 426.80,848.80 426.40,848.00 426.80,847.20 428.00,846.40"/>
    </edge>
    <edge id=":2_0" function="internal">
        <lane id=":2_0_0" index="0" speed="60.00" length="33.80" shape="735.60,86.80 736.10,76.80 737.20,70.00 738.30,63.20 738.80,53.20"/>
        <lane id=":2_0_1" index="1" speed="60.00" length="33.80" shape="738.80,86.80 739.30,76.80 740.40,70.00 741.50,63.20 742.00,53.20"/>
        <lane id=":2_0_2" index="2" speed="60.00" length="33.80" shape="742.00,86.80 742.50,76.80 743.60,70.00 744.70,63.20 745.20,53.20"/>
        <lane id=":2_0_3" index="3" speed="60.00" length="33.80" shape="745.20,86.80 745.70,76.80 746.80,70.00 747.90,63.20 748.40,53.20"/>
    </edge>
    <edge id=":2_4" function="internal">
        <lane id=":2_4_0" index="0" speed="11.84" length="32.30" shape="748.40,86.80 749.75,78.75 753.80,73.00 760.55,69.55 770.00,68.40"/>
    </edge>
    <edge id=":2_5" function="internal">
        <lane id=":2_5_0" index="0" speed="6.51" length="9.03" shape="770.00,81.20 767.55,81.55 765.80,82.60 764.75,84.35 764.40,86.80"/>
    </edge>
    <edge id=":2_6" function="internal">
        <lane id=":2_6_0" index="0" speed="12.72" length="37.45" shape="770.00,78.00 760.55,76.45 753.80,71.80 749.75,64.05 748.40,53.20"/>
        <lane id=":2_6_1" index="1" speed="12.72" length="37.45" shape="770.00,74.80 759.15,73.45 751.40,69.40 746.75,62.65 745.20,53.20"/>
        <lane id=":2_6_2" index="2" speed="12.76" length="37.73" shape="770.00,71.60 757.75,70.45 749.00,67.00 743.75,61.25 742.00,53.20"/>
    </edge>
    <edge id=":2_9" function="internal">
        <lane id=":2_9_0" index="0" speed="6.51" length="9.03" shape="764.40,53.20 764.75,55.65 765.80,57.40 767.55,58.45 770.00,58.80"/>
    </edge>
    <edge id=":2_10" function="internal">
        <lane id=":2_10_0" index="0" speed="60.00" length="33.60" shape="761.20,53.20 761.20,86.80"/>
        <lane id=":2_10_1" index="1" speed="60.00" length="33.60" shape="758.00,53.20 758.00,86.80"/>
        <lane id=":2_10_2" index="2" speed="60.00" length="33.60" shape="754.80,53.20 754.80,86.80"/>
        <lane id=":2_10_3" index="3" speed="60.00" length="33.60" shape="751.60,53.20 751.60,86.80"/>
    </edge>
    <edge id=":2_0_0" function="internal">
        <lane id=":2_0_0_0" index="0" speed="41.30" length="16.83" shape="764.40,173.56 763.41,178.52 761.01,181.41 758.08,184.22 755.52,188.92"/>
        <lane id=":2_0_0_1" index="1" speed="40.23" length="16.83" shape="761.20,173.56 760.21,178.23 757.83,180.90 754.96,183.49 752.48,187.92"/>
        <lane id=":2_0_0_2" index="2" speed="39.14" length="16.83" shape="758.00,173.56 757.01,177.93 754.66,180.39 751.83,182.76 749.44,186.91"/>
        <lane id=":2_0_0_3" index="3" speed="38.03" length="16.83" shape="754.80,173.56 753.82,177.64 751.48,179.87 748.71,182.03 746.40,185.90"/>
    </edge>
    <edge id=":2_0_4" function="internal">
        <lane id=":2_0_4_0" index="0" speed="28.21" length="10.54" shape="734.26,181.86 735.03,179.47 735.43,177.79 735.58,176.07 735.60,173.56"/>
        <lane id=":2_0_4_1" index="1" speed="29.86" length="10.54" shape="737.29,182.87 738.16,180.19 738.60,178.31 738.77,176.38 738.80,173.56"/>
        <lane id=":2_0_4_2" index="2" speed="31.43" length="10.54" shape="740.33,183.88 741.29,180.91 741.78,178.82 741.97,176.68 742.00,173.56"/>
        <lane id=":2_0_4_3" index="3" speed="32.92" length="10.54" shape="743.37,184.89 744.42,181.63 744.96,179.34 745.17,176.99 745.20,173.56"/>
        <lane id=":2_0_4_4" index="4" speed="34.38" length="10.54" shape="743.37,184.89 744.98,181.51 746.62,179.34 747.89,177.12 748.40,173.56"/>
    </edge>
    <edge id=":2_1_0" function="internal">
        <lane id=":2_1_0_0" index="0" speed="3.65" length="4.67" shape="850.00,68.40 851.20,69.20 851.60,70.00 851.20,70.80 850.00,71.60"/>
    </edge>
    <edge id=":2_2_0" function="internal">
        <lane id=":2_2_0_0" index="0" speed="3.65" length="4.67" shape="748.40,0.00 749.20,-1.20 750.00,-1.60 750.80,-1.20 751.60,0.00"/>
    </edge>

    <edge id="0_0i" from="0_0" to="0" priority="-1" length="90.00">
        <lane id="0_0i_0" index="0" speed="60.00" length="90.00" shape="85.60,1760.00 85.60,1680.40"/>
        <lane id="0_0i_1" index="1" speed="60.00" length="90.00" shape="88.80,1760.00 88.80,1680.40"/>
        <lane id="0_0i_2" index="2" speed="60.00" length="90.00" shape="92.00,1760.00 92.00,1680.40"/>
        <lane id="0_0i_3" index="3" speed="60.00" length="90.00" shape="95.20,1760.00 95.20,1680.40"/>
        <lane id="0_0i_4" index="4" speed="60.00" length="90.00" shape="98.40,1760.00 98.40,1680.40"/>
    </edge>
    <edge id="0_0o" from="0" to="0_0" priority="-1" length="90.00">
        <lane id="0_0o_0" index="0" speed="60.00" length="90.00" shape="114.40,1680.40 114.40,1760.00"/>
        <lane id="0_0o_1" index="1" speed="60.00" length="90.00" shape="111.20,1680.40 111.20,1760.00"/>
        <lane id="0_0o_2" index="2" speed="60.00" length="90.00" shape="108.00,1680.40 108.00,1760.00"/>
        <lane id="0_0o_3" index="3" speed="60.00" length="90.00" shape="104.80,1680.40 104.80,1760.00"/>
        <lane id="0_0o_4" index="4" speed="60.00" length="90.00" shape="101.60,1680.40 101.60,1760.00"/>
    </edge>
    <edge id="0_1i" from="0_1" to="0" priority="-1" length="175.00">
        <lane id="0_1i_0" index="0" speed="60.00" length="175.00" shape="117.60,1493.51 117.60,1656.40"/>
        <lane id="0_1i_1" index="1" speed="60.00" length="175.00" shape="114.40,1493.51 114.40,1656.40"/>
        <lane id="0_1i_2" index="2" speed="60.00" length="175.00" shape="111.20,1493.51 111.20,1656.40"/>
        <lane id="0_1i_3" index="3" speed="60.00" length="175.00" shape="108.00,1493.51 108.00,1656.40"/>
        <lane id="0_1i_4" index="4" speed="60.00" length="175.00" shape="104.80,1493.51 104.80,1656.40"/>
        <lane id="0_1i_5" index="5" speed="60.00" length="175.00" shape="101.60,1493.51 101.60,1656.40"/>
    </edge>
    <edge id="0_1o" from="0" to="0_1" priority="-1" length="175.00">
        <lane id="0_1o_0" index="0" speed="60.00" length="175.00" shape="85.60,1656.40 85.60,1493.51"/>
        <lane id="0_1o_1" index="1" speed="60.00" length="175.00" shape="88.80,1656.40 88.80,1493.51"/>
        <lane id="0_1o_2" index="2" speed="60.00" length="175.00" shape="92.00,1656.40 92.00,1493.51"/>
        <lane id="0_1o_3" index="3" speed="60.00" length="175.00" shape="95.20,1656.40 95.20,1493.51"/>
        <lane id="0_1o_4" index="4" speed="60.00" length="175.00" shape="98.40,1656.40 98.40,1493.51"/>
    </edge>
    <edge id="0_2i" from="0_2" to="0" priority="-1" length="100.00">
        <lane id="0_2i_0" index="0" speed="60.00" length="100.00" shape="0.00,1662.00 80.00,1662.00"/>
        <lane id="0_2i_1" index="1" speed="60.00" length="100.00" shape="0.00,1665.20 80.00,1665.20"/>
        <lane id="0_2i_2" index="2" speed="60.00" length="100.00" shape="0.00,1668.40 80.00,1668.40"/>
    </edge>
    <edge id="0_2o" from="0" to="0_2" priority="-1" length="100.00">
        <lane id="0_2o_0" index="0" speed="60.00" length="100.00" shape="80.00,1674.80 0.00,1674.80"/>
        <lane id="0_2o_1" index="1" speed="60.00" length="100.00" shape="80.00,1671.60 0.00,1671.60"/>
    </edge>
    <edge id="1_0i" from="1_0" to="1" priority="-1" length="100.00">
        <lane id="1_0i_0" index="0" speed="60.00" length="100.00" shape="543.60,945.67 543.60,868.00"/>
        <lane id="1_0i_1" index="1" speed="60.00" length="100.00" shape="546.80,945.67 546.80,868.00"/>
        <lane id="1_0i_2" index="2" speed="60.00" length="100.00" shape="550.00,945.67 550.00,868.00"/>
        <lane id="1_0i_3" index="3" speed="60.00" length="100.00" shape="553.20,945.67 553.20,868.00"/>
        <lane id="1_0i_4" index="4" speed="60.00" length="100.00" shape="556.40,945.67 556.40,868.00"/>
    </edge>
    <edge id="1_0o" from="1" to="1_0" priority="-1" length="100.00">
        <lane id="1_0o_0" index="0" speed="60.00" length="100.00" shape="566.00,868.00 566.00,945.67"/>
        <lane id="1_0o_1" index="1" speed="60.00" length="100.00" shape="562.80,868.00 562.80,945.67"/>
        <lane id="1_0o_2" index="2" speed="60.00" length="100.00" shape="559.60,868.00 559.60,945.67"/>
    </edge>
    <edge id="1_1i" from="1_1" to="1" priority="-1" length="136.00">
        <lane id="1_1i_0" index="0" speed="60.00" length="136.00" shape="694.00,862.40 578.00,862.40"/>
        <lane id="1_1i_1" index="1" speed="60.00" length="136.00" shape="694.00,859.20 578.00,859.20"/>
        <lane id="1_1i_2" index="2" speed="60.00" length="136.00" shape="694.00,856.00 578.00,856.00"/>
        <lane id="1_1i_3" index="3" speed="60.00" length="136.00" shape="694.00,852.80 578.00,852.80"/>
        <lane id="1_1i_4" index="4" speed="60.00" length="136.00" shape="694.00,849.60 578.00,849.60"/>
    </edge>
    <edge id="1_1o" from="1" to="1_1" priority="-1" length="136.00">
        <lane id="1_1o_0" index="0" speed="60.00" length="136.00" shape="578.00,836.80 694.00,836.80"/>
        <lane id="1_1o_1" index="1" speed="60.00" length="136.00" shape="578.00,840.00 694.00,840.00"/>
        <lane id="1_1o_2" index="2" speed="60.00" length="136.00" shape="578.00,843.20 694.00,843.20"/>
        <lane id="1_1o_3" index="3" speed="60.00" length="136.00" shape="578.00,846.40 694.00,846.40"/>
    </edge>
    <edge id="1_2i" from="1_2" to="1" priority="-1" length="100.00">
        <lane id="1_2i_0" index="0" speed="60.00" length="100.00" shape="572.40,744.44 572.40,828.00"/>
        <lane id="1_2i_1" index="1" speed="60.00" length="100.00" shape="569.20,744.44 569.20,828.00"/>
        <lane id="1_2i_2" index="2" speed="60.00" length="100.00" shape="566.00,744.44 566.00,828.00"/>
        <lane id="1_2i_3" index="3" speed="60.00" length="100.00" shape="562.80,744.44 562.80,828.00"/>
        <lane id="1_2i_4" index="4" speed="60.00" length="100.00" shape="559.60,744.44 559.60,828.00"/>
    </edge>
    <edge id="1_2o" from="1" to="1_2" priority="-1" length="100.00">
        <lane id="1_2o_0" index="0" speed="60.00" length="100.00" shape="543.60,828.00 543.60,744.44"/>
        <lane id="1_2o_1" index="1" speed="60.00" length="100.00" shape="546.80,828.00 546.80,744.44"/>
        <lane id="1_2o_2" index="2" speed="60.00" length="100.00" shape="550.00,828.00 550.00,744.44"/>
        <lane id="1_2o_3" index="3" speed="60.00" length="100.00" shape="553.20,828.00 553.20,744.44"/>
        <lane id="1_2o_4" index="4" speed="60.00" length="100.00" shape="556.40,828.00 556.40,744.44"/>
    </edge>
    <edge id="1_3i" from="1_3" to="1" priority="-1" length="130.00">
        <lane id="1_3i_0" index="0" speed="60.00" length="130.00" shape="428.00,833.60 538.00,833.60"/>
        <lane id="1_3i_1" index="1" speed="60.00" length="130.00" shape="428.00,836.80 538.00,836.80"/>
        <lane id="1_3i_2" index="2" speed="60.00" length="130.00" shape="428.00,840.00 538.00,840.00"/>
        <lane id="1_3i_3" index="3" speed="60.00" length="130.00" shape="428.00,843.20 538.00,843.20"/>
        <lane id="1_3i_4" index="4" speed="60.00" length="130.00" shape="428.00,846.40 538.00,846.40"/>
    </edge>
    <edge id="1_3o" from="1" to="1_3" priority="-1" length="130.00">
        <lane id="1_3o_0" index="0" speed="60.00" length="130.00" shape="538.00,859.20 428.00,859.20"/>
        <lane id="1_3o_1" index="1" speed="60.00" length="130.00" shape="538.00,856.00 428.00,856.00"/>
        <lane id="1_3o_2" index="2" speed="60.00" length="130.00" shape="538.00,852.80 428.00,852.80"/>
        <lane id="1_3o_3" index="3" speed="60.00" length="130.00" shape="538.00,849.60 428.00,849.60"/>
    </edge>
    <edge id="2_0i" from="2_0" to="2" priority="-1" length="100.00">
        <lane id="2_0i_0" index="0" speed="60.00" length="100.00" shape="735.60,173.56 735.60,86.80"/>
        <lane id="2_0i_1" index="1" speed="60.00" length="100.00" shape="738.80,173.56 738.80,86.80"/>
        <lane id="2_0i_2" index="2" speed="60.00" length="100.00" shape="742.00,173.56 742.00,86.80"/>
        <lane id="2_0i_3" index="3" speed="60.00" length="100.00" shape="745.20,173.56 745.20,86.80"/>
        <lane id="2_0i_4" index="4" speed="60.00" length="100.00" shape="748.40,173.56 748.40,86.80"/>
    </edge>
    <edge id="2_0o" from="2" to="2_0" priority="-1" length="100.00">
        <lane id="2_0o_0" index="0" speed="60.00" length="100.00" shape="764.40,86.80 764.40,173.56"/>
        <lane id="2_0o_1" index="1" speed="60.00" length="100.00" shape="761.20,86.80 761.20,173.56"/>
        <lane id="2_0o_2" index="2" speed="60.00" length="100.00" shape="758.00,86.80 758.00,173.56"/>
        <lane id="2_0o_3" index="3" speed="60.00" length="100.00" shape="754.80,86.80 754.80,173.56"/>
        <lane id="2_0o_4" index="4" speed="60.00" length="100.00" shape="751.60,86.80 751.60,173.56"/>
    </edge>
    <edge id="2_1i" from="2_1" to="2" priority="-1" length="100.00">
        <lane id="2_1i_0" index="0" speed="60.00" length="100.00" shape="850.00,81.20 770.00,81.20"/>
        <lane id="2_1i_1" index="1" speed="60.00" length="100.00" shape="850.00,78.00 770.00,78.00"/>
        <lane id="2_1i_2" index="2" speed="60.00" length="100.00" shape="850.00,74.80 770.00,74.80"/>
        <lane id="2_1i_3" index="3" speed="60.00" length="100.00" shape="850.00,71.60 770.00,71.60"/>
    </edge>
    <edge id="2_1o" from="2" to="2_1" priority="-1" length="100.00">
        <lane id="2_1o_0" index="0" speed="60.00" length="100.00" shape="770.00,58.80 850.00,58.80"/>
        <lane id="2_1o_1" index="1" speed="60.00" length="100.00" shape="770.00,62.00 850.00,62.00"/>
        <lane id="2_1o_2" index="2" speed="60.00" length="100.00" shape="770.00,65.20 850.00,65.20"/>
        <lane id="2_1o_3" index="3" speed="60.00" length="100.00" shape="770.00,68.40 850.00,68.40"/>
    </edge>
    <edge id="2_2i" from="2_2" to="2" priority="-1" length="70.00">
        <lane id="2_2i_0" index="0" speed="60.00" length="70.00" shape="764.40,0.00 764.40,53.20"/>
        <lane id="2_2i_1" index="1" speed="60.00" length="70.00" shape="761.20,0.00 761.20,53.20"/>
        <lane id="2_2i_2" index="2" speed="60.00" length="70.00" shape="758.00,0.00 758.00,53.20"/>
        <lane id="2_2i_3" index="3" speed="60.00" length="70.00" shape="754.80,0.00 754.80,53.20"/>
        <lane id="2_2i_4" index="4" speed="60.00" length="70.00" shape="751.60,0.00 751.60,53.20"/>
    </edge>
    <edge id="2_2o" from="2" to="2_2" priority="-1" length="70.00">
        <lane id="2_2o_0" index="0" speed="60.00" length="70.00" shape="738.80,53.20 738.80,0.00"/>
        <lane id="2_2o_1" index="1" speed="60.00" length="70.00" shape="742.00,53.20 742.00,0.00"/>
        <lane id="2_2o_2" index="2" speed="60.00" length="70.00" shape="745.20,53.20 745.20,0.00"/>
        <lane id="2_2o_3" index="3" speed="60.00" length="70.00" shape="748.40,53.20 748.40,0.00"/>
    </edge>
    <edge id="r1_0_1" from="0_1" to="1_0" priority="-1" length="725.00">
        <lane id="r1_0_1_0" index="0" speed="60.00" length="725.00" shape="101.76,1475.45 542.26,949.35"/>
        <lane id="r1_0_1_1" index="1" speed="60.00" length="725.00" shape="104.22,1477.50 544.72,951.40"/>
        <lane id="r1_0_1_2" index="2" speed="60.00" length="725.00" shape="106.67,1479.56 547.17,953.46"/>
        <lane id="r1_0_1_3" index="3" speed="60.00" length="725.00" shape="109.12,1481.61 549.62,955.51"/>
    </edge>
    <edge id="r1_1_0" from="1_0" to="0_1" priority="-1" length="725.00">
        <lane id="r1_1_0_0" index="0" speed="60.00" length="725.00" shape="559.44,963.73 118.94,1489.83"/>
        <lane id="r1_1_0_1" index="1" speed="60.00" length="725.00" shape="556.98,961.67 116.48,1487.78"/>
        <lane id="r1_1_0_2" index="2" speed="60.00" length="725.00" shape="554.53,959.62 114.03,1485.72"/>
        <lane id="r1_1_0_3" index="3" speed="60.00" length="725.00" shape="552.08,957.57 111.58,1483.67"/>
    </edge>
    <edge id="r2_1_2" from="1_2" to="2_0" priority="-1" length="578.00">
        <lane id="r2_1_2_0" index="0" speed="60.00" length="578.00" shape="552.48,729.08 734.26,181.86"/>
        <lane id="r2_1_2_1" index="1" speed="60.00" length="578.00" shape="555.52,730.08 737.29,182.87"/>
        <lane id="r2_1_2_2" index="2" speed="60.00" length="578.00" shape="558.56,731.09 740.33,183.88"/>
        <lane id="r2_1_2_3" index="3" speed="60.00" length="578.00" shape="561.60,732.10 743.37,184.89"/>
    </edge>
    <edge id="r2_2_1" from="2_0" to="1_2" priority="-1" length="578.00">
        <lane id="r2_2_1_0" index="0" speed="60.00" length="578.00" shape="755.52,188.92 573.74,736.14"/>
        <lane id="r2_2_1_1" index="1" speed="60.00" length="578.00" shape="752.48,187.92 570.71,735.13"/>
        <lane id="r2_2_1_2" index="2" speed="60.00" length="578.00" shape="749.44,186.91 567.67,734.12"/>
        <lane id="r2_2_1_3" index="3" speed="60.00" length="578.00" shape="746.40,185.90 564.63,733.11"/>
    </edge>

    <tlLogic id="0" type="static" programID="tll1" offset="0">
        <phase duration="60" state="sGGGGGGGGGGsrr"/>
        <phase duration="6"  state="syyyyyyyyyysrr"/>
        <phase duration="30" state="srrrrrrrrrrsGG"/>
        <phase duration="6"  state="srrrrrrrrrrsyy"/>
    </tlLogic>
    <tlLogic id="1" type="static" programID="tll1" offset="0">
        <phase duration="45" state="sGGGGsrrrrsrrrrsrrrr"/>
        <phase duration="6"  state="syyyysrrrrsrrrrsrrrr"/>
        <phase duration="45" state="srrrrsGGGGsrrrrsrrrr"/>
        <phase duration="6"  state="srrrrsyyyysrrrrsrrrr"/>
        <phase duration="45" state="srrrrsrrrrsGGGGsrrrr"/>
        <phase duration="6"  state="srrrrsrrrrsyyyysrrrr"/>
        <phase duration="45" state="srrrrsrrrrsrrrrsGGGG"/>
        <phase duration="6"  state="srrrrsrrrrsrrrrsyyyy"/>
    </tlLogic>
    <tlLogic id="2" type="static" programID="tll2" offset="0">
        <phase duration="60" state="GGGGGsrrrsGGGG"/>
        <phase duration="6"  state="yyyyysrrrsyyyy"/>
        <phase duration="30" state="rrrrrsGGGsrrrr"/>
        <phase duration="6"  state="rrrrrsyyysrrrr"/>
    </tlLogic>
