<tlLogics>
   <tlLogic id="0" type="static" programID="tll1" offset="0">
      <phase duration="60" state="sGGGGGGGGGGsrr"/>
      <phase duration="6" state="syyyyyyyyyysrr"/>
      <phase duration="30" state="srrrrrrrrrrsGG"/>
      <phase duration="6" state="srrrrrrrrrrsyy"/>
   </tlLogic>
   <tlLogic id="1" type="static" programID="tll1" offset="0">
      <phase duration="45" state="sGGGGsrrrrsrrrrsrrrr"/>
      <phase duration="6" state="syyyysrrrrsrrrrsrrrr"/>
      <phase duration="45" state="srrrrsGGGGsrrrrsrrrr"/>
      <phase duration="6" state="srrrrsyyyysrrrrsrrrr"/>
      <phase duration="45" state="srrrrsrrrrsGGGGsrrrr"/>
      <phase duration="6" state="srrrrsrrrrsyyyysrrrr"/>
      <phase duration="45" state="srrrrsrrrrsrrrrsGGGG"/>
      <phase duration="6" state="srrrrsrrrrsrrrrsyyyy"/>
   </tlLogic>
   <tlLogic id="2" type="static" programID="tll2" offset="0">
      <phase duration="60" state="GGGGGsrrrsGGGG"/>
      <phase duration="6" state="yyyyysrrrsyyyy"/>
      <phase duration="30" state="rrrrrsGGGsrrrr"/>
      <phase duration="6" state="rrrrrsyyysrrrr"/>
   </tlLogic>
</tlLogics>