<configuration>

    <input>
        <node-files value="network/node/brl.nod.xml"/>
        <edge-files value="network/edge/brl2.edg.xml"/>
        <connection-files value="network/connection/brl2.con.xml"/>
        <tllogic-files value="network/tllogic/brl2.tll.xml"/>
    </input>

    <output>
        <output-file value="network/brl2.net.xml"/>
    </output>

    <report>
        <verbose value="true"/>
    </report>

</configuration>