<configuration>
    <input>
        <net-file value="network/brl2.net.xml"/>
        <gui-settings-file value="brl2.settings.xml"/>
    </input>
    <time>
        <begin value="0"/>

    </time>
</configuration>
