<configuration>
    <input>
        <net-file value="network/test.net.xml"/>
        <route-files value="route/test.rou.xml"/>
        <gui-settings-file value="test.settings.xml"/>
    </input>
    <time>
        <begin value="0"/>

    </time>
</configuration>
